* SPICE3 file created from CDAC_mim_12bit_flat.ext - technology: sky130A

.subckt CDAC_12bit C0_dummy C0 C1 C2 C3 C4 C5 C6 C7 C8 C9 C10 Ctop VSS
X0 Ctop C10 sky130_fd_pr__cap_mim_m3_1 l=1 w=1
X1 Ctop C10 sky130_fd_pr__cap_mim_m3_1 l=1 w=1
X2 Ctop C10 sky130_fd_pr__cap_mim_m3_1 l=1 w=1
X3 Ctop C8 sky130_fd_pr__cap_mim_m3_1 l=1 w=1
X4 Ctop C10 sky130_fd_pr__cap_mim_m3_1 l=1 w=1
X5 Ctop C10 sky130_fd_pr__cap_mim_m3_1 l=1 w=1
X6 Ctop C10 sky130_fd_pr__cap_mim_m3_1 l=1 w=1
X7 Ctop C10 sky130_fd_pr__cap_mim_m3_1 l=1 w=1
X8 Ctop C9 sky130_fd_pr__cap_mim_m3_1 l=1 w=1
X9 Ctop C10 sky130_fd_pr__cap_mim_m3_1 l=1 w=1
X10 Ctop C6 sky130_fd_pr__cap_mim_m3_1 l=1 w=1
X11 Ctop C9 sky130_fd_pr__cap_mim_m3_1 l=1 w=1
X12 Ctop C10 sky130_fd_pr__cap_mim_m3_1 l=1 w=1
X13 Ctop C7 sky130_fd_pr__cap_mim_m3_1 l=1 w=1
X14 VSS VSS sky130_fd_pr__cap_mim_m3_1 l=1 w=1
X15 Ctop C10 sky130_fd_pr__cap_mim_m3_1 l=1 w=1
X16 Ctop C10 sky130_fd_pr__cap_mim_m3_1 l=1 w=1
X17 VSS VSS sky130_fd_pr__cap_mim_m3_1 l=1 w=1
X18 Ctop C10 sky130_fd_pr__cap_mim_m3_1 l=1 w=1
X19 Ctop C10 sky130_fd_pr__cap_mim_m3_1 l=1 w=1
X20 Ctop C9 sky130_fd_pr__cap_mim_m3_1 l=1 w=1
X21 Ctop C10 sky130_fd_pr__cap_mim_m3_1 l=1 w=1
X22 Ctop C10 sky130_fd_pr__cap_mim_m3_1 l=1 w=1
X23 Ctop C10 sky130_fd_pr__cap_mim_m3_1 l=1 w=1
X24 VSS C9 sky130_fd_pr__cap_mim_m3_1 l=1 w=1
X25 Ctop C9 sky130_fd_pr__cap_mim_m3_1 l=1 w=1
X26 Ctop C9 sky130_fd_pr__cap_mim_m3_1 l=1 w=1
X27 Ctop VSS sky130_fd_pr__cap_mim_m3_1 l=1 w=1
X28 Ctop C10 sky130_fd_pr__cap_mim_m3_1 l=1 w=1
X29 Ctop C10 sky130_fd_pr__cap_mim_m3_1 l=1 w=1
X30 Ctop C10 sky130_fd_pr__cap_mim_m3_1 l=1 w=1
X31 Ctop C10 sky130_fd_pr__cap_mim_m3_1 l=1 w=1
X32 Ctop C10 sky130_fd_pr__cap_mim_m3_1 l=1 w=1
X33 Ctop C9 sky130_fd_pr__cap_mim_m3_1 l=1 w=1
X34 Ctop C8 sky130_fd_pr__cap_mim_m3_1 l=1 w=1
X35 Ctop C6 sky130_fd_pr__cap_mim_m3_1 l=1 w=1
X36 Ctop C10 sky130_fd_pr__cap_mim_m3_1 l=1 w=1
X37 Ctop C8 sky130_fd_pr__cap_mim_m3_1 l=1 w=1
X38 Ctop C10 sky130_fd_pr__cap_mim_m3_1 l=1 w=1
X39 Ctop C9 sky130_fd_pr__cap_mim_m3_1 l=1 w=1
X40 Ctop C10 sky130_fd_pr__cap_mim_m3_1 l=1 w=1
X41 Ctop C10 sky130_fd_pr__cap_mim_m3_1 l=1 w=1
X42 Ctop C9 sky130_fd_pr__cap_mim_m3_1 l=1 w=1
X43 Ctop C10 sky130_fd_pr__cap_mim_m3_1 l=1 w=1
X44 Ctop C2 sky130_fd_pr__cap_mim_m3_1 l=1 w=1
X45 Ctop C10 sky130_fd_pr__cap_mim_m3_1 l=1 w=1
X46 Ctop C10 sky130_fd_pr__cap_mim_m3_1 l=1 w=1
X47 Ctop VSS sky130_fd_pr__cap_mim_m3_1 l=1 w=1
X48 VSS VSS sky130_fd_pr__cap_mim_m3_1 l=1 w=1
X49 Ctop C7 sky130_fd_pr__cap_mim_m3_1 l=1 w=1
X50 Ctop C10 sky130_fd_pr__cap_mim_m3_1 l=1 w=1
X51 Ctop C10 sky130_fd_pr__cap_mim_m3_1 l=1 w=1
X52 Ctop C8 sky130_fd_pr__cap_mim_m3_1 l=1 w=1
X53 VSS C10 sky130_fd_pr__cap_mim_m3_1 l=1 w=1
X54 Ctop C8 sky130_fd_pr__cap_mim_m3_1 l=1 w=1
X55 Ctop C7 sky130_fd_pr__cap_mim_m3_1 l=1 w=1
X56 Ctop C10 sky130_fd_pr__cap_mim_m3_1 l=1 w=1
X57 Ctop C10 sky130_fd_pr__cap_mim_m3_1 l=1 w=1
X58 Ctop C10 sky130_fd_pr__cap_mim_m3_1 l=1 w=1
X59 Ctop C9 sky130_fd_pr__cap_mim_m3_1 l=1 w=1
X60 Ctop C10 sky130_fd_pr__cap_mim_m3_1 l=1 w=1
X61 Ctop C10 sky130_fd_pr__cap_mim_m3_1 l=1 w=1
X62 Ctop C5 sky130_fd_pr__cap_mim_m3_1 l=1 w=1
X63 VSS VSS sky130_fd_pr__cap_mim_m3_1 l=1 w=1
X64 Ctop C10 sky130_fd_pr__cap_mim_m3_1 l=1 w=1
X65 Ctop C7 sky130_fd_pr__cap_mim_m3_1 l=1 w=1
X66 Ctop VSS sky130_fd_pr__cap_mim_m3_1 l=1 w=1
X67 Ctop C10 sky130_fd_pr__cap_mim_m3_1 l=1 w=1
X68 Ctop C8 sky130_fd_pr__cap_mim_m3_1 l=1 w=1
X69 Ctop C7 sky130_fd_pr__cap_mim_m3_1 l=1 w=1
X70 Ctop C8 sky130_fd_pr__cap_mim_m3_1 l=1 w=1
X71 Ctop C10 sky130_fd_pr__cap_mim_m3_1 l=1 w=1
X72 Ctop C9 sky130_fd_pr__cap_mim_m3_1 l=1 w=1
X73 VSS VSS sky130_fd_pr__cap_mim_m3_1 l=1 w=1
X74 Ctop C9 sky130_fd_pr__cap_mim_m3_1 l=1 w=1
X75 Ctop C8 sky130_fd_pr__cap_mim_m3_1 l=1 w=1
X76 Ctop C7 sky130_fd_pr__cap_mim_m3_1 l=1 w=1
X77 Ctop C9 sky130_fd_pr__cap_mim_m3_1 l=1 w=1
X78 VSS C9 sky130_fd_pr__cap_mim_m3_1 l=1 w=1
X79 Ctop C8 sky130_fd_pr__cap_mim_m3_1 l=1 w=1
X80 Ctop C9 sky130_fd_pr__cap_mim_m3_1 l=1 w=1
X81 Ctop VSS sky130_fd_pr__cap_mim_m3_1 l=1 w=1
X82 VSS VSS sky130_fd_pr__cap_mim_m3_1 l=1 w=1
X83 Ctop C10 sky130_fd_pr__cap_mim_m3_1 l=1 w=1
X84 Ctop C10 sky130_fd_pr__cap_mim_m3_1 l=1 w=1
X85 Ctop C10 sky130_fd_pr__cap_mim_m3_1 l=1 w=1
X86 Ctop C10 sky130_fd_pr__cap_mim_m3_1 l=1 w=1
X87 Ctop C10 sky130_fd_pr__cap_mim_m3_1 l=1 w=1
X88 Ctop C10 sky130_fd_pr__cap_mim_m3_1 l=1 w=1
X89 Ctop C7 sky130_fd_pr__cap_mim_m3_1 l=1 w=1
X90 Ctop C10 sky130_fd_pr__cap_mim_m3_1 l=1 w=1
X91 Ctop C6 sky130_fd_pr__cap_mim_m3_1 l=1 w=1
X92 Ctop C8 sky130_fd_pr__cap_mim_m3_1 l=1 w=1
X93 Ctop C10 sky130_fd_pr__cap_mim_m3_1 l=1 w=1
X94 Ctop C10 sky130_fd_pr__cap_mim_m3_1 l=1 w=1
X95 Ctop C9 sky130_fd_pr__cap_mim_m3_1 l=1 w=1
X96 Ctop C9 sky130_fd_pr__cap_mim_m3_1 l=1 w=1
X97 Ctop C10 sky130_fd_pr__cap_mim_m3_1 l=1 w=1
X98 Ctop C10 sky130_fd_pr__cap_mim_m3_1 l=1 w=1
X99 Ctop C9 sky130_fd_pr__cap_mim_m3_1 l=1 w=1
X100 Ctop C4 sky130_fd_pr__cap_mim_m3_1 l=1 w=1
X101 Ctop C10 sky130_fd_pr__cap_mim_m3_1 l=1 w=1
X102 Ctop C8 sky130_fd_pr__cap_mim_m3_1 l=1 w=1
X103 Ctop C10 sky130_fd_pr__cap_mim_m3_1 l=1 w=1
X104 Ctop C9 sky130_fd_pr__cap_mim_m3_1 l=1 w=1
X105 Ctop C6 sky130_fd_pr__cap_mim_m3_1 l=1 w=1
X106 Ctop C9 sky130_fd_pr__cap_mim_m3_1 l=1 w=1
X107 Ctop C9 sky130_fd_pr__cap_mim_m3_1 l=1 w=1
X108 Ctop C7 sky130_fd_pr__cap_mim_m3_1 l=1 w=1
X109 Ctop C10 sky130_fd_pr__cap_mim_m3_1 l=1 w=1
X110 Ctop C10 sky130_fd_pr__cap_mim_m3_1 l=1 w=1
X111 Ctop C10 sky130_fd_pr__cap_mim_m3_1 l=1 w=1
X112 VSS C8 sky130_fd_pr__cap_mim_m3_1 l=1 w=1
X113 Ctop C8 sky130_fd_pr__cap_mim_m3_1 l=1 w=1
X114 Ctop C9 sky130_fd_pr__cap_mim_m3_1 l=1 w=1
X115 Ctop C10 sky130_fd_pr__cap_mim_m3_1 l=1 w=1
X116 Ctop C10 sky130_fd_pr__cap_mim_m3_1 l=1 w=1
X117 Ctop C10 sky130_fd_pr__cap_mim_m3_1 l=1 w=1
X118 Ctop C10 sky130_fd_pr__cap_mim_m3_1 l=1 w=1
X119 Ctop C9 sky130_fd_pr__cap_mim_m3_1 l=1 w=1
X120 Ctop C10 sky130_fd_pr__cap_mim_m3_1 l=1 w=1
X121 Ctop C9 sky130_fd_pr__cap_mim_m3_1 l=1 w=1
X122 Ctop C7 sky130_fd_pr__cap_mim_m3_1 l=1 w=1
X123 Ctop C9 sky130_fd_pr__cap_mim_m3_1 l=1 w=1
X124 Ctop C10 sky130_fd_pr__cap_mim_m3_1 l=1 w=1
X125 Ctop C10 sky130_fd_pr__cap_mim_m3_1 l=1 w=1
X126 Ctop C10 sky130_fd_pr__cap_mim_m3_1 l=1 w=1
X127 Ctop C10 sky130_fd_pr__cap_mim_m3_1 l=1 w=1
X128 VSS VSS sky130_fd_pr__cap_mim_m3_1 l=1 w=1
X129 Ctop C10 sky130_fd_pr__cap_mim_m3_1 l=1 w=1
X130 Ctop C9 sky130_fd_pr__cap_mim_m3_1 l=1 w=1
X131 Ctop C7 sky130_fd_pr__cap_mim_m3_1 l=1 w=1
X132 Ctop C9 sky130_fd_pr__cap_mim_m3_1 l=1 w=1
X133 Ctop C10 sky130_fd_pr__cap_mim_m3_1 l=1 w=1
X134 Ctop C4 sky130_fd_pr__cap_mim_m3_1 l=1 w=1
X135 Ctop C7 sky130_fd_pr__cap_mim_m3_1 l=1 w=1
X136 VSS VSS sky130_fd_pr__cap_mim_m3_1 l=1 w=1
X137 Ctop C8 sky130_fd_pr__cap_mim_m3_1 l=1 w=1
X138 Ctop C9 sky130_fd_pr__cap_mim_m3_1 l=1 w=1
X139 Ctop C9 sky130_fd_pr__cap_mim_m3_1 l=1 w=1
X140 Ctop C10 sky130_fd_pr__cap_mim_m3_1 l=1 w=1
X141 Ctop C8 sky130_fd_pr__cap_mim_m3_1 l=1 w=1
X142 Ctop C10 sky130_fd_pr__cap_mim_m3_1 l=1 w=1
X143 Ctop C10 sky130_fd_pr__cap_mim_m3_1 l=1 w=1
X144 Ctop C10 sky130_fd_pr__cap_mim_m3_1 l=1 w=1
X145 Ctop C9 sky130_fd_pr__cap_mim_m3_1 l=1 w=1
X146 Ctop C9 sky130_fd_pr__cap_mim_m3_1 l=1 w=1
X147 Ctop C10 sky130_fd_pr__cap_mim_m3_1 l=1 w=1
X148 Ctop C6 sky130_fd_pr__cap_mim_m3_1 l=1 w=1
X149 Ctop C9 sky130_fd_pr__cap_mim_m3_1 l=1 w=1
X150 Ctop C7 sky130_fd_pr__cap_mim_m3_1 l=1 w=1
X151 Ctop VSS sky130_fd_pr__cap_mim_m3_1 l=1 w=1
X152 Ctop C10 sky130_fd_pr__cap_mim_m3_1 l=1 w=1
X153 Ctop C9 sky130_fd_pr__cap_mim_m3_1 l=1 w=1
X154 Ctop C9 sky130_fd_pr__cap_mim_m3_1 l=1 w=1
X155 Ctop C10 sky130_fd_pr__cap_mim_m3_1 l=1 w=1
X156 Ctop C8 sky130_fd_pr__cap_mim_m3_1 l=1 w=1
X157 Ctop C8 sky130_fd_pr__cap_mim_m3_1 l=1 w=1
X158 Ctop C9 sky130_fd_pr__cap_mim_m3_1 l=1 w=1
X159 Ctop C10 sky130_fd_pr__cap_mim_m3_1 l=1 w=1
X160 Ctop C10 sky130_fd_pr__cap_mim_m3_1 l=1 w=1
X161 Ctop C7 sky130_fd_pr__cap_mim_m3_1 l=1 w=1
X162 Ctop C10 sky130_fd_pr__cap_mim_m3_1 l=1 w=1
X163 Ctop C10 sky130_fd_pr__cap_mim_m3_1 l=1 w=1
X164 Ctop C10 sky130_fd_pr__cap_mim_m3_1 l=1 w=1
X165 Ctop C10 sky130_fd_pr__cap_mim_m3_1 l=1 w=1
X166 Ctop C10 sky130_fd_pr__cap_mim_m3_1 l=1 w=1
X167 Ctop C8 sky130_fd_pr__cap_mim_m3_1 l=1 w=1
X168 Ctop C9 sky130_fd_pr__cap_mim_m3_1 l=1 w=1
X169 Ctop C10 sky130_fd_pr__cap_mim_m3_1 l=1 w=1
X170 VSS VSS sky130_fd_pr__cap_mim_m3_1 l=1 w=1
X171 Ctop C6 sky130_fd_pr__cap_mim_m3_1 l=1 w=1
X172 Ctop C10 sky130_fd_pr__cap_mim_m3_1 l=1 w=1
X173 Ctop C7 sky130_fd_pr__cap_mim_m3_1 l=1 w=1
X174 Ctop C9 sky130_fd_pr__cap_mim_m3_1 l=1 w=1
X175 Ctop C9 sky130_fd_pr__cap_mim_m3_1 l=1 w=1
X176 Ctop C8 sky130_fd_pr__cap_mim_m3_1 l=1 w=1
X177 Ctop C10 sky130_fd_pr__cap_mim_m3_1 l=1 w=1
X178 Ctop C10 sky130_fd_pr__cap_mim_m3_1 l=1 w=1
X179 Ctop C9 sky130_fd_pr__cap_mim_m3_1 l=1 w=1
X180 Ctop C7 sky130_fd_pr__cap_mim_m3_1 l=1 w=1
X181 Ctop C10 sky130_fd_pr__cap_mim_m3_1 l=1 w=1
X182 Ctop C10 sky130_fd_pr__cap_mim_m3_1 l=1 w=1
X183 Ctop C9 sky130_fd_pr__cap_mim_m3_1 l=1 w=1
X184 Ctop C9 sky130_fd_pr__cap_mim_m3_1 l=1 w=1
X185 Ctop C9 sky130_fd_pr__cap_mim_m3_1 l=1 w=1
X186 Ctop C10 sky130_fd_pr__cap_mim_m3_1 l=1 w=1
X187 Ctop C7 sky130_fd_pr__cap_mim_m3_1 l=1 w=1
X188 Ctop C10 sky130_fd_pr__cap_mim_m3_1 l=1 w=1
X189 Ctop C8 sky130_fd_pr__cap_mim_m3_1 l=1 w=1
X190 Ctop C10 sky130_fd_pr__cap_mim_m3_1 l=1 w=1
X191 Ctop C8 sky130_fd_pr__cap_mim_m3_1 l=1 w=1
X192 Ctop C10 sky130_fd_pr__cap_mim_m3_1 l=1 w=1
X193 Ctop C8 sky130_fd_pr__cap_mim_m3_1 l=1 w=1
X194 Ctop C10 sky130_fd_pr__cap_mim_m3_1 l=1 w=1
X195 Ctop VSS sky130_fd_pr__cap_mim_m3_1 l=1 w=1
X196 Ctop C8 sky130_fd_pr__cap_mim_m3_1 l=1 w=1
X197 Ctop C10 sky130_fd_pr__cap_mim_m3_1 l=1 w=1
X198 Ctop C10 sky130_fd_pr__cap_mim_m3_1 l=1 w=1
X199 Ctop C9 sky130_fd_pr__cap_mim_m3_1 l=1 w=1
X200 Ctop C10 sky130_fd_pr__cap_mim_m3_1 l=1 w=1
X201 Ctop C9 sky130_fd_pr__cap_mim_m3_1 l=1 w=1
X202 Ctop C10 sky130_fd_pr__cap_mim_m3_1 l=1 w=1
X203 Ctop C8 sky130_fd_pr__cap_mim_m3_1 l=1 w=1
X204 Ctop C9 sky130_fd_pr__cap_mim_m3_1 l=1 w=1
X205 Ctop C10 sky130_fd_pr__cap_mim_m3_1 l=1 w=1
X206 Ctop C10 sky130_fd_pr__cap_mim_m3_1 l=1 w=1
X207 Ctop C9 sky130_fd_pr__cap_mim_m3_1 l=1 w=1
X208 Ctop C8 sky130_fd_pr__cap_mim_m3_1 l=1 w=1
X209 Ctop C5 sky130_fd_pr__cap_mim_m3_1 l=1 w=1
X210 Ctop C10 sky130_fd_pr__cap_mim_m3_1 l=1 w=1
X211 Ctop VSS sky130_fd_pr__cap_mim_m3_1 l=1 w=1
X212 Ctop C7 sky130_fd_pr__cap_mim_m3_1 l=1 w=1
X213 Ctop C10 sky130_fd_pr__cap_mim_m3_1 l=1 w=1
X214 Ctop C9 sky130_fd_pr__cap_mim_m3_1 l=1 w=1
X215 Ctop C10 sky130_fd_pr__cap_mim_m3_1 l=1 w=1
X216 Ctop C10 sky130_fd_pr__cap_mim_m3_1 l=1 w=1
X217 Ctop C9 sky130_fd_pr__cap_mim_m3_1 l=1 w=1
X218 Ctop C10 sky130_fd_pr__cap_mim_m3_1 l=1 w=1
X219 Ctop C9 sky130_fd_pr__cap_mim_m3_1 l=1 w=1
X220 Ctop C8 sky130_fd_pr__cap_mim_m3_1 l=1 w=1
X221 Ctop C10 sky130_fd_pr__cap_mim_m3_1 l=1 w=1
X222 VSS C5 sky130_fd_pr__cap_mim_m3_1 l=1 w=1
X223 Ctop C10 sky130_fd_pr__cap_mim_m3_1 l=1 w=1
X224 Ctop C10 sky130_fd_pr__cap_mim_m3_1 l=1 w=1
X225 Ctop C10 sky130_fd_pr__cap_mim_m3_1 l=1 w=1
X226 Ctop C10 sky130_fd_pr__cap_mim_m3_1 l=1 w=1
X227 Ctop C7 sky130_fd_pr__cap_mim_m3_1 l=1 w=1
X228 Ctop VSS sky130_fd_pr__cap_mim_m3_1 l=1 w=1
X229 Ctop C9 sky130_fd_pr__cap_mim_m3_1 l=1 w=1
X230 Ctop C10 sky130_fd_pr__cap_mim_m3_1 l=1 w=1
X231 Ctop C10 sky130_fd_pr__cap_mim_m3_1 l=1 w=1
X232 Ctop C10 sky130_fd_pr__cap_mim_m3_1 l=1 w=1
X233 Ctop C9 sky130_fd_pr__cap_mim_m3_1 l=1 w=1
X234 Ctop C10 sky130_fd_pr__cap_mim_m3_1 l=1 w=1
X235 Ctop C10 sky130_fd_pr__cap_mim_m3_1 l=1 w=1
X236 VSS VSS sky130_fd_pr__cap_mim_m3_1 l=1 w=1
X237 Ctop C10 sky130_fd_pr__cap_mim_m3_1 l=1 w=1
X238 Ctop C8 sky130_fd_pr__cap_mim_m3_1 l=1 w=1
X239 Ctop C9 sky130_fd_pr__cap_mim_m3_1 l=1 w=1
X240 Ctop C10 sky130_fd_pr__cap_mim_m3_1 l=1 w=1
X241 Ctop C10 sky130_fd_pr__cap_mim_m3_1 l=1 w=1
X242 Ctop C10 sky130_fd_pr__cap_mim_m3_1 l=1 w=1
X243 Ctop C9 sky130_fd_pr__cap_mim_m3_1 l=1 w=1
X244 Ctop C10 sky130_fd_pr__cap_mim_m3_1 l=1 w=1
X245 Ctop C10 sky130_fd_pr__cap_mim_m3_1 l=1 w=1
X246 Ctop C10 sky130_fd_pr__cap_mim_m3_1 l=1 w=1
X247 Ctop C10 sky130_fd_pr__cap_mim_m3_1 l=1 w=1
X248 Ctop C10 sky130_fd_pr__cap_mim_m3_1 l=1 w=1
X249 Ctop C2 sky130_fd_pr__cap_mim_m3_1 l=1 w=1
X250 Ctop C7 sky130_fd_pr__cap_mim_m3_1 l=1 w=1
X251 Ctop C10 sky130_fd_pr__cap_mim_m3_1 l=1 w=1
X252 VSS VSS sky130_fd_pr__cap_mim_m3_1 l=1 w=1
X253 Ctop C9 sky130_fd_pr__cap_mim_m3_1 l=1 w=1
X254 Ctop C10 sky130_fd_pr__cap_mim_m3_1 l=1 w=1
X255 Ctop C8 sky130_fd_pr__cap_mim_m3_1 l=1 w=1
X256 Ctop C10 sky130_fd_pr__cap_mim_m3_1 l=1 w=1
X257 Ctop C10 sky130_fd_pr__cap_mim_m3_1 l=1 w=1
X258 Ctop C10 sky130_fd_pr__cap_mim_m3_1 l=1 w=1
X259 Ctop C7 sky130_fd_pr__cap_mim_m3_1 l=1 w=1
X260 Ctop VSS sky130_fd_pr__cap_mim_m3_1 l=1 w=1
X261 Ctop C10 sky130_fd_pr__cap_mim_m3_1 l=1 w=1
X262 Ctop C10 sky130_fd_pr__cap_mim_m3_1 l=1 w=1
X263 Ctop C7 sky130_fd_pr__cap_mim_m3_1 l=1 w=1
X264 Ctop C9 sky130_fd_pr__cap_mim_m3_1 l=1 w=1
X265 VSS VSS sky130_fd_pr__cap_mim_m3_1 l=1 w=1
X266 Ctop C9 sky130_fd_pr__cap_mim_m3_1 l=1 w=1
X267 Ctop C10 sky130_fd_pr__cap_mim_m3_1 l=1 w=1
X268 Ctop C10 sky130_fd_pr__cap_mim_m3_1 l=1 w=1
X269 Ctop C10 sky130_fd_pr__cap_mim_m3_1 l=1 w=1
X270 Ctop C9 sky130_fd_pr__cap_mim_m3_1 l=1 w=1
X271 Ctop C6 sky130_fd_pr__cap_mim_m3_1 l=1 w=1
X272 Ctop C8 sky130_fd_pr__cap_mim_m3_1 l=1 w=1
X273 VSS C10 sky130_fd_pr__cap_mim_m3_1 l=1 w=1
X274 Ctop C7 sky130_fd_pr__cap_mim_m3_1 l=1 w=1
X275 Ctop C10 sky130_fd_pr__cap_mim_m3_1 l=1 w=1
X276 Ctop C9 sky130_fd_pr__cap_mim_m3_1 l=1 w=1
X277 Ctop C9 sky130_fd_pr__cap_mim_m3_1 l=1 w=1
X278 Ctop C10 sky130_fd_pr__cap_mim_m3_1 l=1 w=1
X279 Ctop C10 sky130_fd_pr__cap_mim_m3_1 l=1 w=1
X280 Ctop C7 sky130_fd_pr__cap_mim_m3_1 l=1 w=1
X281 Ctop VSS sky130_fd_pr__cap_mim_m3_1 l=1 w=1
X282 Ctop C10 sky130_fd_pr__cap_mim_m3_1 l=1 w=1
X283 Ctop C8 sky130_fd_pr__cap_mim_m3_1 l=1 w=1
X284 VSS VSS sky130_fd_pr__cap_mim_m3_1 l=1 w=1
X285 Ctop C10 sky130_fd_pr__cap_mim_m3_1 l=1 w=1
X286 Ctop C9 sky130_fd_pr__cap_mim_m3_1 l=1 w=1
X287 VSS C7 sky130_fd_pr__cap_mim_m3_1 l=1 w=1
X288 Ctop C10 sky130_fd_pr__cap_mim_m3_1 l=1 w=1
X289 Ctop C7 sky130_fd_pr__cap_mim_m3_1 l=1 w=1
X290 Ctop C10 sky130_fd_pr__cap_mim_m3_1 l=1 w=1
X291 Ctop C9 sky130_fd_pr__cap_mim_m3_1 l=1 w=1
X292 Ctop C9 sky130_fd_pr__cap_mim_m3_1 l=1 w=1
X293 Ctop C10 sky130_fd_pr__cap_mim_m3_1 l=1 w=1
X294 Ctop C10 sky130_fd_pr__cap_mim_m3_1 l=1 w=1
X295 Ctop C10 sky130_fd_pr__cap_mim_m3_1 l=1 w=1
X296 Ctop C9 sky130_fd_pr__cap_mim_m3_1 l=1 w=1
X297 Ctop C8 sky130_fd_pr__cap_mim_m3_1 l=1 w=1
X298 Ctop C8 sky130_fd_pr__cap_mim_m3_1 l=1 w=1
X299 Ctop VSS sky130_fd_pr__cap_mim_m3_1 l=1 w=1
X300 Ctop C9 sky130_fd_pr__cap_mim_m3_1 l=1 w=1
X301 Ctop C8 sky130_fd_pr__cap_mim_m3_1 l=1 w=1
X302 Ctop C10 sky130_fd_pr__cap_mim_m3_1 l=1 w=1
X303 Ctop C9 sky130_fd_pr__cap_mim_m3_1 l=1 w=1
X304 VSS C9 sky130_fd_pr__cap_mim_m3_1 l=1 w=1
X305 VSS VSS sky130_fd_pr__cap_mim_m3_1 l=1 w=1
X306 Ctop C8 sky130_fd_pr__cap_mim_m3_1 l=1 w=1
X307 Ctop C9 sky130_fd_pr__cap_mim_m3_1 l=1 w=1
X308 Ctop C8 sky130_fd_pr__cap_mim_m3_1 l=1 w=1
X309 Ctop C8 sky130_fd_pr__cap_mim_m3_1 l=1 w=1
X310 Ctop C8 sky130_fd_pr__cap_mim_m3_1 l=1 w=1
X311 Ctop C10 sky130_fd_pr__cap_mim_m3_1 l=1 w=1
X312 Ctop C5 sky130_fd_pr__cap_mim_m3_1 l=1 w=1
X313 Ctop C10 sky130_fd_pr__cap_mim_m3_1 l=1 w=1
X314 Ctop C10 sky130_fd_pr__cap_mim_m3_1 l=1 w=1
X315 Ctop C8 sky130_fd_pr__cap_mim_m3_1 l=1 w=1
X316 Ctop C9 sky130_fd_pr__cap_mim_m3_1 l=1 w=1
X317 Ctop C9 sky130_fd_pr__cap_mim_m3_1 l=1 w=1
X318 Ctop C10 sky130_fd_pr__cap_mim_m3_1 l=1 w=1
X319 Ctop C9 sky130_fd_pr__cap_mim_m3_1 l=1 w=1
X320 Ctop C10 sky130_fd_pr__cap_mim_m3_1 l=1 w=1
X321 Ctop C9 sky130_fd_pr__cap_mim_m3_1 l=1 w=1
X322 Ctop C7 sky130_fd_pr__cap_mim_m3_1 l=1 w=1
X323 Ctop C9 sky130_fd_pr__cap_mim_m3_1 l=1 w=1
X324 Ctop C10 sky130_fd_pr__cap_mim_m3_1 l=1 w=1
X325 Ctop C10 sky130_fd_pr__cap_mim_m3_1 l=1 w=1
X326 Ctop C9 sky130_fd_pr__cap_mim_m3_1 l=1 w=1
X327 Ctop C9 sky130_fd_pr__cap_mim_m3_1 l=1 w=1
X328 VSS C10 sky130_fd_pr__cap_mim_m3_1 l=1 w=1
X329 Ctop C7 sky130_fd_pr__cap_mim_m3_1 l=1 w=1
X330 Ctop C9 sky130_fd_pr__cap_mim_m3_1 l=1 w=1
X331 Ctop C10 sky130_fd_pr__cap_mim_m3_1 l=1 w=1
X332 Ctop C8 sky130_fd_pr__cap_mim_m3_1 l=1 w=1
X333 Ctop C9 sky130_fd_pr__cap_mim_m3_1 l=1 w=1
X334 VSS C8 sky130_fd_pr__cap_mim_m3_1 l=1 w=1
X335 Ctop C10 sky130_fd_pr__cap_mim_m3_1 l=1 w=1
X336 Ctop C10 sky130_fd_pr__cap_mim_m3_1 l=1 w=1
X337 Ctop C8 sky130_fd_pr__cap_mim_m3_1 l=1 w=1
X338 Ctop C10 sky130_fd_pr__cap_mim_m3_1 l=1 w=1
X339 Ctop C10 sky130_fd_pr__cap_mim_m3_1 l=1 w=1
X340 Ctop C9 sky130_fd_pr__cap_mim_m3_1 l=1 w=1
X341 Ctop C10 sky130_fd_pr__cap_mim_m3_1 l=1 w=1
X342 Ctop C9 sky130_fd_pr__cap_mim_m3_1 l=1 w=1
X343 Ctop C10 sky130_fd_pr__cap_mim_m3_1 l=1 w=1
X344 Ctop C6 sky130_fd_pr__cap_mim_m3_1 l=1 w=1
X345 Ctop C9 sky130_fd_pr__cap_mim_m3_1 l=1 w=1
X346 Ctop C7 sky130_fd_pr__cap_mim_m3_1 l=1 w=1
X347 Ctop C10 sky130_fd_pr__cap_mim_m3_1 l=1 w=1
X348 Ctop C9 sky130_fd_pr__cap_mim_m3_1 l=1 w=1
X349 Ctop C10 sky130_fd_pr__cap_mim_m3_1 l=1 w=1
X350 Ctop C10 sky130_fd_pr__cap_mim_m3_1 l=1 w=1
X351 VSS VSS sky130_fd_pr__cap_mim_m3_1 l=1 w=1
X352 Ctop C9 sky130_fd_pr__cap_mim_m3_1 l=1 w=1
X353 Ctop C9 sky130_fd_pr__cap_mim_m3_1 l=1 w=1
X354 Ctop C8 sky130_fd_pr__cap_mim_m3_1 l=1 w=1
X355 Ctop C10 sky130_fd_pr__cap_mim_m3_1 l=1 w=1
X356 Ctop C10 sky130_fd_pr__cap_mim_m3_1 l=1 w=1
X357 Ctop C10 sky130_fd_pr__cap_mim_m3_1 l=1 w=1
X358 Ctop C10 sky130_fd_pr__cap_mim_m3_1 l=1 w=1
X359 Ctop C9 sky130_fd_pr__cap_mim_m3_1 l=1 w=1
X360 Ctop C10 sky130_fd_pr__cap_mim_m3_1 l=1 w=1
X361 Ctop C10 sky130_fd_pr__cap_mim_m3_1 l=1 w=1
X362 Ctop C10 sky130_fd_pr__cap_mim_m3_1 l=1 w=1
X363 Ctop C10 sky130_fd_pr__cap_mim_m3_1 l=1 w=1
X364 Ctop C10 sky130_fd_pr__cap_mim_m3_1 l=1 w=1
X365 Ctop C8 sky130_fd_pr__cap_mim_m3_1 l=1 w=1
X366 Ctop C10 sky130_fd_pr__cap_mim_m3_1 l=1 w=1
X367 Ctop C9 sky130_fd_pr__cap_mim_m3_1 l=1 w=1
X368 Ctop C9 sky130_fd_pr__cap_mim_m3_1 l=1 w=1
X369 Ctop C6 sky130_fd_pr__cap_mim_m3_1 l=1 w=1
X370 Ctop C10 sky130_fd_pr__cap_mim_m3_1 l=1 w=1
X371 Ctop C10 sky130_fd_pr__cap_mim_m3_1 l=1 w=1
X372 Ctop C10 sky130_fd_pr__cap_mim_m3_1 l=1 w=1
X373 Ctop C9 sky130_fd_pr__cap_mim_m3_1 l=1 w=1
X374 Ctop C9 sky130_fd_pr__cap_mim_m3_1 l=1 w=1
X375 Ctop C10 sky130_fd_pr__cap_mim_m3_1 l=1 w=1
X376 Ctop C7 sky130_fd_pr__cap_mim_m3_1 l=1 w=1
X377 Ctop C10 sky130_fd_pr__cap_mim_m3_1 l=1 w=1
X378 Ctop C9 sky130_fd_pr__cap_mim_m3_1 l=1 w=1
X379 Ctop C10 sky130_fd_pr__cap_mim_m3_1 l=1 w=1
X380 Ctop C10 sky130_fd_pr__cap_mim_m3_1 l=1 w=1
X381 Ctop C8 sky130_fd_pr__cap_mim_m3_1 l=1 w=1
X382 Ctop C7 sky130_fd_pr__cap_mim_m3_1 l=1 w=1
X383 VSS VSS sky130_fd_pr__cap_mim_m3_1 l=1 w=1
X384 Ctop C10 sky130_fd_pr__cap_mim_m3_1 l=1 w=1
X385 Ctop C10 sky130_fd_pr__cap_mim_m3_1 l=1 w=1
X386 Ctop C10 sky130_fd_pr__cap_mim_m3_1 l=1 w=1
X387 VSS VSS sky130_fd_pr__cap_mim_m3_1 l=1 w=1
X388 Ctop C10 sky130_fd_pr__cap_mim_m3_1 l=1 w=1
X389 Ctop C10 sky130_fd_pr__cap_mim_m3_1 l=1 w=1
X390 Ctop C9 sky130_fd_pr__cap_mim_m3_1 l=1 w=1
X391 Ctop C10 sky130_fd_pr__cap_mim_m3_1 l=1 w=1
X392 Ctop C9 sky130_fd_pr__cap_mim_m3_1 l=1 w=1
X393 Ctop C7 sky130_fd_pr__cap_mim_m3_1 l=1 w=1
X394 Ctop C10 sky130_fd_pr__cap_mim_m3_1 l=1 w=1
X395 VSS C10 sky130_fd_pr__cap_mim_m3_1 l=1 w=1
X396 Ctop C6 sky130_fd_pr__cap_mim_m3_1 l=1 w=1
X397 Ctop C9 sky130_fd_pr__cap_mim_m3_1 l=1 w=1
X398 Ctop C10 sky130_fd_pr__cap_mim_m3_1 l=1 w=1
X399 Ctop C9 sky130_fd_pr__cap_mim_m3_1 l=1 w=1
X400 Ctop C10 sky130_fd_pr__cap_mim_m3_1 l=1 w=1
X401 Ctop C10 sky130_fd_pr__cap_mim_m3_1 l=1 w=1
X402 Ctop C10 sky130_fd_pr__cap_mim_m3_1 l=1 w=1
X403 Ctop C10 sky130_fd_pr__cap_mim_m3_1 l=1 w=1
X404 Ctop C9 sky130_fd_pr__cap_mim_m3_1 l=1 w=1
X405 Ctop C8 sky130_fd_pr__cap_mim_m3_1 l=1 w=1
X406 Ctop C10 sky130_fd_pr__cap_mim_m3_1 l=1 w=1
X407 Ctop C5 sky130_fd_pr__cap_mim_m3_1 l=1 w=1
X408 Ctop VSS sky130_fd_pr__cap_mim_m3_1 l=1 w=1
X409 Ctop C10 sky130_fd_pr__cap_mim_m3_1 l=1 w=1
X410 Ctop C7 sky130_fd_pr__cap_mim_m3_1 l=1 w=1
X411 Ctop C7 sky130_fd_pr__cap_mim_m3_1 l=1 w=1
X412 Ctop C7 sky130_fd_pr__cap_mim_m3_1 l=1 w=1
X413 Ctop C10 sky130_fd_pr__cap_mim_m3_1 l=1 w=1
X414 Ctop C10 sky130_fd_pr__cap_mim_m3_1 l=1 w=1
X415 Ctop C9 sky130_fd_pr__cap_mim_m3_1 l=1 w=1
X416 Ctop C5 sky130_fd_pr__cap_mim_m3_1 l=1 w=1
X417 Ctop C10 sky130_fd_pr__cap_mim_m3_1 l=1 w=1
X418 Ctop VSS sky130_fd_pr__cap_mim_m3_1 l=1 w=1
X419 Ctop C8 sky130_fd_pr__cap_mim_m3_1 l=1 w=1
X420 Ctop C10 sky130_fd_pr__cap_mim_m3_1 l=1 w=1
X421 Ctop C8 sky130_fd_pr__cap_mim_m3_1 l=1 w=1
X422 Ctop C8 sky130_fd_pr__cap_mim_m3_1 l=1 w=1
X423 Ctop C8 sky130_fd_pr__cap_mim_m3_1 l=1 w=1
X424 Ctop C9 sky130_fd_pr__cap_mim_m3_1 l=1 w=1
X425 Ctop C10 sky130_fd_pr__cap_mim_m3_1 l=1 w=1
X426 Ctop C10 sky130_fd_pr__cap_mim_m3_1 l=1 w=1
X427 Ctop C9 sky130_fd_pr__cap_mim_m3_1 l=1 w=1
X428 Ctop C10 sky130_fd_pr__cap_mim_m3_1 l=1 w=1
X429 Ctop C9 sky130_fd_pr__cap_mim_m3_1 l=1 w=1
X430 Ctop C7 sky130_fd_pr__cap_mim_m3_1 l=1 w=1
X431 Ctop C10 sky130_fd_pr__cap_mim_m3_1 l=1 w=1
X432 VSS VSS sky130_fd_pr__cap_mim_m3_1 l=1 w=1
X433 Ctop C9 sky130_fd_pr__cap_mim_m3_1 l=1 w=1
X434 Ctop C8 sky130_fd_pr__cap_mim_m3_1 l=1 w=1
X435 Ctop C8 sky130_fd_pr__cap_mim_m3_1 l=1 w=1
X436 Ctop VSS sky130_fd_pr__cap_mim_m3_1 l=1 w=1
X437 Ctop C9 sky130_fd_pr__cap_mim_m3_1 l=1 w=1
X438 Ctop C10 sky130_fd_pr__cap_mim_m3_1 l=1 w=1
X439 Ctop C10 sky130_fd_pr__cap_mim_m3_1 l=1 w=1
X440 Ctop C10 sky130_fd_pr__cap_mim_m3_1 l=1 w=1
X441 Ctop C7 sky130_fd_pr__cap_mim_m3_1 l=1 w=1
X442 Ctop C9 sky130_fd_pr__cap_mim_m3_1 l=1 w=1
X443 VSS C9 sky130_fd_pr__cap_mim_m3_1 l=1 w=1
X444 Ctop C9 sky130_fd_pr__cap_mim_m3_1 l=1 w=1
X445 Ctop C9 sky130_fd_pr__cap_mim_m3_1 l=1 w=1
X446 Ctop C10 sky130_fd_pr__cap_mim_m3_1 l=1 w=1
X447 Ctop C10 sky130_fd_pr__cap_mim_m3_1 l=1 w=1
X448 Ctop C10 sky130_fd_pr__cap_mim_m3_1 l=1 w=1
X449 Ctop C10 sky130_fd_pr__cap_mim_m3_1 l=1 w=1
X450 Ctop C10 sky130_fd_pr__cap_mim_m3_1 l=1 w=1
X451 Ctop C10 sky130_fd_pr__cap_mim_m3_1 l=1 w=1
X452 Ctop C10 sky130_fd_pr__cap_mim_m3_1 l=1 w=1
X453 Ctop C9 sky130_fd_pr__cap_mim_m3_1 l=1 w=1
X454 Ctop C10 sky130_fd_pr__cap_mim_m3_1 l=1 w=1
X455 Ctop C7 sky130_fd_pr__cap_mim_m3_1 l=1 w=1
X456 Ctop C7 sky130_fd_pr__cap_mim_m3_1 l=1 w=1
X457 Ctop VSS sky130_fd_pr__cap_mim_m3_1 l=1 w=1
X458 Ctop C9 sky130_fd_pr__cap_mim_m3_1 l=1 w=1
X459 Ctop C9 sky130_fd_pr__cap_mim_m3_1 l=1 w=1
X460 Ctop C8 sky130_fd_pr__cap_mim_m3_1 l=1 w=1
X461 Ctop C9 sky130_fd_pr__cap_mim_m3_1 l=1 w=1
X462 Ctop C10 sky130_fd_pr__cap_mim_m3_1 l=1 w=1
X463 Ctop C10 sky130_fd_pr__cap_mim_m3_1 l=1 w=1
X464 Ctop C10 sky130_fd_pr__cap_mim_m3_1 l=1 w=1
X465 Ctop C9 sky130_fd_pr__cap_mim_m3_1 l=1 w=1
X466 Ctop C9 sky130_fd_pr__cap_mim_m3_1 l=1 w=1
X467 Ctop C6 sky130_fd_pr__cap_mim_m3_1 l=1 w=1
X468 Ctop C9 sky130_fd_pr__cap_mim_m3_1 l=1 w=1
X469 VSS VSS sky130_fd_pr__cap_mim_m3_1 l=1 w=1
X470 Ctop C9 sky130_fd_pr__cap_mim_m3_1 l=1 w=1
X471 Ctop C10 sky130_fd_pr__cap_mim_m3_1 l=1 w=1
X472 Ctop C10 sky130_fd_pr__cap_mim_m3_1 l=1 w=1
X473 Ctop C9 sky130_fd_pr__cap_mim_m3_1 l=1 w=1
X474 Ctop C10 sky130_fd_pr__cap_mim_m3_1 l=1 w=1
X475 Ctop C10 sky130_fd_pr__cap_mim_m3_1 l=1 w=1
X476 VSS C7 sky130_fd_pr__cap_mim_m3_1 l=1 w=1
X477 Ctop C7 sky130_fd_pr__cap_mim_m3_1 l=1 w=1
X478 Ctop C10 sky130_fd_pr__cap_mim_m3_1 l=1 w=1
X479 Ctop C10 sky130_fd_pr__cap_mim_m3_1 l=1 w=1
X480 Ctop C8 sky130_fd_pr__cap_mim_m3_1 l=1 w=1
X481 Ctop C9 sky130_fd_pr__cap_mim_m3_1 l=1 w=1
X482 Ctop C10 sky130_fd_pr__cap_mim_m3_1 l=1 w=1
X483 Ctop C6 sky130_fd_pr__cap_mim_m3_1 l=1 w=1
X484 Ctop C7 sky130_fd_pr__cap_mim_m3_1 l=1 w=1
X485 Ctop C9 sky130_fd_pr__cap_mim_m3_1 l=1 w=1
X486 Ctop C10 sky130_fd_pr__cap_mim_m3_1 l=1 w=1
X487 Ctop C10 sky130_fd_pr__cap_mim_m3_1 l=1 w=1
X488 Ctop C10 sky130_fd_pr__cap_mim_m3_1 l=1 w=1
X489 VSS VSS sky130_fd_pr__cap_mim_m3_1 l=1 w=1
X490 Ctop C10 sky130_fd_pr__cap_mim_m3_1 l=1 w=1
X491 Ctop C6 sky130_fd_pr__cap_mim_m3_1 l=1 w=1
X492 Ctop C9 sky130_fd_pr__cap_mim_m3_1 l=1 w=1
X493 Ctop C10 sky130_fd_pr__cap_mim_m3_1 l=1 w=1
X494 Ctop C10 sky130_fd_pr__cap_mim_m3_1 l=1 w=1
X495 Ctop C9 sky130_fd_pr__cap_mim_m3_1 l=1 w=1
X496 Ctop C10 sky130_fd_pr__cap_mim_m3_1 l=1 w=1
X497 Ctop C10 sky130_fd_pr__cap_mim_m3_1 l=1 w=1
X498 Ctop C6 sky130_fd_pr__cap_mim_m3_1 l=1 w=1
X499 Ctop C10 sky130_fd_pr__cap_mim_m3_1 l=1 w=1
X500 VSS VSS sky130_fd_pr__cap_mim_m3_1 l=1 w=1
X501 Ctop VSS sky130_fd_pr__cap_mim_m3_1 l=1 w=1
X502 Ctop C8 sky130_fd_pr__cap_mim_m3_1 l=1 w=1
X503 Ctop C9 sky130_fd_pr__cap_mim_m3_1 l=1 w=1
X504 Ctop C10 sky130_fd_pr__cap_mim_m3_1 l=1 w=1
X505 Ctop C9 sky130_fd_pr__cap_mim_m3_1 l=1 w=1
X506 Ctop C9 sky130_fd_pr__cap_mim_m3_1 l=1 w=1
X507 Ctop C10 sky130_fd_pr__cap_mim_m3_1 l=1 w=1
X508 Ctop C7 sky130_fd_pr__cap_mim_m3_1 l=1 w=1
X509 Ctop C10 sky130_fd_pr__cap_mim_m3_1 l=1 w=1
X510 Ctop C10 sky130_fd_pr__cap_mim_m3_1 l=1 w=1
X511 Ctop C9 sky130_fd_pr__cap_mim_m3_1 l=1 w=1
X512 Ctop C8 sky130_fd_pr__cap_mim_m3_1 l=1 w=1
X513 Ctop C5 sky130_fd_pr__cap_mim_m3_1 l=1 w=1
X514 Ctop C9 sky130_fd_pr__cap_mim_m3_1 l=1 w=1
X515 VSS C6 sky130_fd_pr__cap_mim_m3_1 l=1 w=1
X516 Ctop C10 sky130_fd_pr__cap_mim_m3_1 l=1 w=1
X517 Ctop C10 sky130_fd_pr__cap_mim_m3_1 l=1 w=1
X518 Ctop C10 sky130_fd_pr__cap_mim_m3_1 l=1 w=1
X519 Ctop C9 sky130_fd_pr__cap_mim_m3_1 l=1 w=1
X520 Ctop C8 sky130_fd_pr__cap_mim_m3_1 l=1 w=1
X521 Ctop C9 sky130_fd_pr__cap_mim_m3_1 l=1 w=1
X522 Ctop C10 sky130_fd_pr__cap_mim_m3_1 l=1 w=1
X523 Ctop C10 sky130_fd_pr__cap_mim_m3_1 l=1 w=1
X524 Ctop C9 sky130_fd_pr__cap_mim_m3_1 l=1 w=1
X525 Ctop C8 sky130_fd_pr__cap_mim_m3_1 l=1 w=1
X526 Ctop C7 sky130_fd_pr__cap_mim_m3_1 l=1 w=1
X527 Ctop C10 sky130_fd_pr__cap_mim_m3_1 l=1 w=1
X528 Ctop C10 sky130_fd_pr__cap_mim_m3_1 l=1 w=1
X529 Ctop C9 sky130_fd_pr__cap_mim_m3_1 l=1 w=1
X530 Ctop C9 sky130_fd_pr__cap_mim_m3_1 l=1 w=1
X531 Ctop C9 sky130_fd_pr__cap_mim_m3_1 l=1 w=1
X532 Ctop C10 sky130_fd_pr__cap_mim_m3_1 l=1 w=1
X533 Ctop C8 sky130_fd_pr__cap_mim_m3_1 l=1 w=1
X534 Ctop C10 sky130_fd_pr__cap_mim_m3_1 l=1 w=1
X535 Ctop C6 sky130_fd_pr__cap_mim_m3_1 l=1 w=1
X536 Ctop C10 sky130_fd_pr__cap_mim_m3_1 l=1 w=1
X537 Ctop C10 sky130_fd_pr__cap_mim_m3_1 l=1 w=1
X538 VSS C10 sky130_fd_pr__cap_mim_m3_1 l=1 w=1
X539 Ctop C8 sky130_fd_pr__cap_mim_m3_1 l=1 w=1
X540 Ctop C7 sky130_fd_pr__cap_mim_m3_1 l=1 w=1
X541 Ctop C9 sky130_fd_pr__cap_mim_m3_1 l=1 w=1
X542 Ctop C10 sky130_fd_pr__cap_mim_m3_1 l=1 w=1
X543 Ctop C8 sky130_fd_pr__cap_mim_m3_1 l=1 w=1
X544 Ctop C8 sky130_fd_pr__cap_mim_m3_1 l=1 w=1
X545 Ctop C8 sky130_fd_pr__cap_mim_m3_1 l=1 w=1
X546 Ctop C5 sky130_fd_pr__cap_mim_m3_1 l=1 w=1
X547 Ctop C10 sky130_fd_pr__cap_mim_m3_1 l=1 w=1
X548 Ctop VSS sky130_fd_pr__cap_mim_m3_1 l=1 w=1
X549 Ctop C10 sky130_fd_pr__cap_mim_m3_1 l=1 w=1
X550 Ctop C10 sky130_fd_pr__cap_mim_m3_1 l=1 w=1
X551 Ctop C10 sky130_fd_pr__cap_mim_m3_1 l=1 w=1
X552 Ctop C10 sky130_fd_pr__cap_mim_m3_1 l=1 w=1
X553 Ctop C9 sky130_fd_pr__cap_mim_m3_1 l=1 w=1
X554 VSS VSS sky130_fd_pr__cap_mim_m3_1 l=1 w=1
X555 Ctop C9 sky130_fd_pr__cap_mim_m3_1 l=1 w=1
X556 Ctop C10 sky130_fd_pr__cap_mim_m3_1 l=1 w=1
X557 Ctop C8 sky130_fd_pr__cap_mim_m3_1 l=1 w=1
X558 Ctop C10 sky130_fd_pr__cap_mim_m3_1 l=1 w=1
X559 Ctop C9 sky130_fd_pr__cap_mim_m3_1 l=1 w=1
X560 Ctop C10 sky130_fd_pr__cap_mim_m3_1 l=1 w=1
X561 Ctop C8 sky130_fd_pr__cap_mim_m3_1 l=1 w=1
X562 Ctop C10 sky130_fd_pr__cap_mim_m3_1 l=1 w=1
X563 Ctop C9 sky130_fd_pr__cap_mim_m3_1 l=1 w=1
X564 Ctop C10 sky130_fd_pr__cap_mim_m3_1 l=1 w=1
X565 Ctop C10 sky130_fd_pr__cap_mim_m3_1 l=1 w=1
X566 Ctop C10 sky130_fd_pr__cap_mim_m3_1 l=1 w=1
X567 Ctop C8 sky130_fd_pr__cap_mim_m3_1 l=1 w=1
X568 Ctop C9 sky130_fd_pr__cap_mim_m3_1 l=1 w=1
X569 Ctop C9 sky130_fd_pr__cap_mim_m3_1 l=1 w=1
X570 Ctop C9 sky130_fd_pr__cap_mim_m3_1 l=1 w=1
X571 Ctop C10 sky130_fd_pr__cap_mim_m3_1 l=1 w=1
X572 Ctop C10 sky130_fd_pr__cap_mim_m3_1 l=1 w=1
X573 Ctop C9 sky130_fd_pr__cap_mim_m3_1 l=1 w=1
X574 Ctop C10 sky130_fd_pr__cap_mim_m3_1 l=1 w=1
X575 Ctop C5 sky130_fd_pr__cap_mim_m3_1 l=1 w=1
X576 Ctop C7 sky130_fd_pr__cap_mim_m3_1 l=1 w=1
X577 Ctop C10 sky130_fd_pr__cap_mim_m3_1 l=1 w=1
X578 Ctop C10 sky130_fd_pr__cap_mim_m3_1 l=1 w=1
X579 Ctop C7 sky130_fd_pr__cap_mim_m3_1 l=1 w=1
X580 Ctop C8 sky130_fd_pr__cap_mim_m3_1 l=1 w=1
X581 Ctop C10 sky130_fd_pr__cap_mim_m3_1 l=1 w=1
X582 Ctop C10 sky130_fd_pr__cap_mim_m3_1 l=1 w=1
X583 Ctop C9 sky130_fd_pr__cap_mim_m3_1 l=1 w=1
X584 Ctop C10 sky130_fd_pr__cap_mim_m3_1 l=1 w=1
X585 Ctop C10 sky130_fd_pr__cap_mim_m3_1 l=1 w=1
X586 Ctop C10 sky130_fd_pr__cap_mim_m3_1 l=1 w=1
X587 Ctop C9 sky130_fd_pr__cap_mim_m3_1 l=1 w=1
X588 Ctop C10 sky130_fd_pr__cap_mim_m3_1 l=1 w=1
X589 Ctop C10 sky130_fd_pr__cap_mim_m3_1 l=1 w=1
X590 Ctop C10 sky130_fd_pr__cap_mim_m3_1 l=1 w=1
X591 Ctop C9 sky130_fd_pr__cap_mim_m3_1 l=1 w=1
X592 Ctop C7 sky130_fd_pr__cap_mim_m3_1 l=1 w=1
X593 Ctop C10 sky130_fd_pr__cap_mim_m3_1 l=1 w=1
X594 Ctop C9 sky130_fd_pr__cap_mim_m3_1 l=1 w=1
X595 Ctop C10 sky130_fd_pr__cap_mim_m3_1 l=1 w=1
X596 Ctop C10 sky130_fd_pr__cap_mim_m3_1 l=1 w=1
X597 Ctop C10 sky130_fd_pr__cap_mim_m3_1 l=1 w=1
X598 Ctop C9 sky130_fd_pr__cap_mim_m3_1 l=1 w=1
X599 Ctop C10 sky130_fd_pr__cap_mim_m3_1 l=1 w=1
X600 Ctop C10 sky130_fd_pr__cap_mim_m3_1 l=1 w=1
X601 Ctop C10 sky130_fd_pr__cap_mim_m3_1 l=1 w=1
X602 Ctop C10 sky130_fd_pr__cap_mim_m3_1 l=1 w=1
X603 Ctop C10 sky130_fd_pr__cap_mim_m3_1 l=1 w=1
X604 Ctop C5 sky130_fd_pr__cap_mim_m3_1 l=1 w=1
X605 Ctop VSS sky130_fd_pr__cap_mim_m3_1 l=1 w=1
X606 Ctop C10 sky130_fd_pr__cap_mim_m3_1 l=1 w=1
X607 Ctop C7 sky130_fd_pr__cap_mim_m3_1 l=1 w=1
X608 Ctop C10 sky130_fd_pr__cap_mim_m3_1 l=1 w=1
X609 Ctop C10 sky130_fd_pr__cap_mim_m3_1 l=1 w=1
X610 Ctop C9 sky130_fd_pr__cap_mim_m3_1 l=1 w=1
X611 Ctop C10 sky130_fd_pr__cap_mim_m3_1 l=1 w=1
X612 Ctop C10 sky130_fd_pr__cap_mim_m3_1 l=1 w=1
X613 Ctop C10 sky130_fd_pr__cap_mim_m3_1 l=1 w=1
X614 Ctop C10 sky130_fd_pr__cap_mim_m3_1 l=1 w=1
X615 Ctop C5 sky130_fd_pr__cap_mim_m3_1 l=1 w=1
X616 Ctop C6 sky130_fd_pr__cap_mim_m3_1 l=1 w=1
X617 Ctop VSS sky130_fd_pr__cap_mim_m3_1 l=1 w=1