*SPEF "ieee 1481-1999"
*DESIGN "state_machine"
*DATE "20:31:07 Saturday April 06, 2024"
*VENDOR "The OpenROAD Project"
*PROGRAM "OpenROAD"
*VERSION "0889970d1790a2617e69f253221b8bd7626e51dc"
*DESIGN_FLOW "NAME_SCOPE LOCAL" "PIN_CAP NONE"
*DIVIDER /
*DELIMITER :
*BUS_DELIMITER []
*T_UNIT 1 NS
*C_UNIT 1 PF
*R_UNIT 1 OHM
*L_UNIT 1 HENRY

*NAME_MAP
*1 CLK_DATA
*2 COMP_N
*3 COMP_P
*4 DAC_SETTLE
*5 DAC_SETTLE_D
*6 DATA[0]
*7 DATA[1]
*8 DATA[2]
*9 DATA[3]
*10 DATA[4]
*11 DATA[5]
*12 DEBUG_MUX[0]
*13 DEBUG_MUX[1]
*14 DEBUG_MUX[2]
*15 DEBUG_MUX[3]
*16 DEBUG_OUT
*17 EN_COMP
*18 EN_OFFSET_CAL
*19 EN_OFFSET_CAL_O
*20 EN_VCM_SW_O
*21 HI
*22 LO
*23 OFFSET_CAL_CYCLE
*24 RST_Z
*25 SAMPLE_D
*26 SAMPLE_O
*27 START
*28 VCM_DUMMY_O
*29 VCM_O[0]
*30 VCM_O[10]
*31 VCM_O[1]
*32 VCM_O[2]
*33 VCM_O[3]
*34 VCM_O[4]
*35 VCM_O[5]
*36 VCM_O[6]
*37 VCM_O[7]
*38 VCM_O[8]
*39 VCM_O[9]
*41 VIN_N_SW_ON
*42 VIN_P_SW_ON
*43 VREF_Z_N_O[0]
*44 VREF_Z_N_O[10]
*45 VREF_Z_N_O[1]
*46 VREF_Z_N_O[2]
*47 VREF_Z_N_O[3]
*48 VREF_Z_N_O[4]
*49 VREF_Z_N_O[5]
*50 VREF_Z_N_O[6]
*51 VREF_Z_N_O[7]
*52 VREF_Z_N_O[8]
*53 VREF_Z_N_O[9]
*54 VREF_Z_P_O[0]
*55 VREF_Z_P_O[10]
*56 VREF_Z_P_O[1]
*57 VREF_Z_P_O[2]
*58 VREF_Z_P_O[3]
*59 VREF_Z_P_O[4]
*60 VREF_Z_P_O[5]
*61 VREF_Z_P_O[6]
*62 VREF_Z_P_O[7]
*63 VREF_Z_P_O[8]
*64 VREF_Z_P_O[9]
*66 VSS_N_O[0]
*67 VSS_N_O[10]
*68 VSS_N_O[1]
*69 VSS_N_O[2]
*70 VSS_N_O[3]
*71 VSS_N_O[4]
*72 VSS_N_O[5]
*73 VSS_N_O[6]
*74 VSS_N_O[7]
*75 VSS_N_O[8]
*76 VSS_N_O[9]
*77 VSS_P_O[0]
*78 VSS_P_O[10]
*79 VSS_P_O[1]
*80 VSS_P_O[2]
*81 VSS_P_O[3]
*82 VSS_P_O[4]
*83 VSS_P_O[5]
*84 VSS_P_O[6]
*85 VSS_P_O[7]
*86 VSS_P_O[8]
*87 VSS_P_O[9]
*88 ALLOW_VCM_SW
*89 ALLOW_VREF_SW\[0\]
*90 ALLOW_VREF_SW\[10\]
*91 ALLOW_VREF_SW\[1\]
*92 ALLOW_VREF_SW\[2\]
*93 ALLOW_VREF_SW\[3\]
*94 ALLOW_VREF_SW\[4\]
*95 ALLOW_VREF_SW\[5\]
*96 ALLOW_VREF_SW\[6\]
*97 ALLOW_VREF_SW\[7\]
*98 ALLOW_VREF_SW\[8\]
*99 ALLOW_VREF_SW\[9\]
*100 CLK_CMP
*101 CLK_COUNTER_Z
*102 CLK_PULSE
*103 COMP_DECIDED
*104 CONVERT
*105 COUNTER\[0\]
*106 COUNTER\[10\]
*107 COUNTER\[11\]
*108 COUNTER\[1\]
*109 COUNTER\[2\]
*110 COUNTER\[3\]
*111 COUNTER\[4\]
*112 COUNTER\[5\]
*113 COUNTER\[6\]
*114 COUNTER\[7\]
*115 COUNTER\[8\]
*116 COUNTER\[9\]
*117 DONE
*118 EN_DAC_OUT\[0\]
*119 EN_DAC_OUT\[10\]
*120 EN_DAC_OUT\[11\]
*121 EN_DAC_OUT\[1\]
*122 EN_DAC_OUT\[2\]
*123 EN_DAC_OUT\[3\]
*124 EN_DAC_OUT\[4\]
*125 EN_DAC_OUT\[5\]
*126 EN_DAC_OUT\[6\]
*127 EN_DAC_OUT\[7\]
*128 EN_DAC_OUT\[8\]
*129 EN_DAC_OUT\[9\]
*130 FINISH
*131 IDLE
*132 LOAD
*133 LOAD_D
*134 RESULT_Z\[0\]
*135 RESULT_Z\[10\]
*136 RESULT_Z\[11\]
*137 RESULT_Z\[1\]
*138 RESULT_Z\[2\]
*139 RESULT_Z\[3\]
*140 RESULT_Z\[4\]
*141 RESULT_Z\[5\]
*142 RESULT_Z\[6\]
*143 RESULT_Z\[7\]
*144 RESULT_Z\[8\]
*145 RESULT_Z\[9\]
*146 RESULTi\[0\]
*147 RESULTi\[10\]
*148 RESULTi\[11\]
*149 RESULTi\[1\]
*150 RESULTi\[2\]
*151 RESULTi\[3\]
*152 RESULTi\[4\]
*153 RESULTi\[5\]
*154 RESULTi\[6\]
*155 RESULTi\[7\]
*156 RESULTi\[8\]
*157 RESULTi\[9\]
*158 RST_RES_REG_Z
*159 RST_Zi
*160 RSTi
*161 R_CLK_PULSE_Z
*162 R_CONVERT_Z
*163 R_IDLE_Z
*164 R_SAMPLE_Z
*165 SAMPLE
*166 S_CLK_PULSE_Z
*167 S_CONVERT_Z
*168 S_IDLE_Z
*169 S_SAMPLE_Z
*170 VCM_Z_O\[0\]
*171 VCM_Z_O\[10\]
*172 VCM_Z_O\[1\]
*173 VCM_Z_O\[2\]
*174 VCM_Z_O\[3\]
*175 VCM_Z_O\[4\]
*176 VCM_Z_O\[5\]
*177 VCM_Z_O\[6\]
*178 VCM_Z_O\[7\]
*179 VCM_Z_O\[8\]
*180 VCM_Z_O\[9\]
*181 net1
*182 net10\[0\]
*183 net10\[10\]
*184 net10\[11\]
*185 net10\[1\]
*186 net10\[2\]
*187 net10\[3\]
*188 net10\[4\]
*189 net10\[5\]
*190 net10\[6\]
*191 net10\[7\]
*192 net10\[8\]
*193 net10\[9\]
*194 net11
*195 net12
*196 net13
*197 net14
*198 net15
*199 net16
*200 net17
*201 net18
*202 net19
*203 net2
*204 net20
*205 net21
*206 net22
*207 net23
*208 net24\[0\]
*209 net24\[10\]
*210 net24\[1\]
*211 net24\[2\]
*212 net24\[3\]
*213 net24\[4\]
*214 net24\[5\]
*215 net24\[6\]
*216 net24\[7\]
*217 net24\[8\]
*218 net24\[9\]
*219 net25
*220 net26
*221 net27\[0\]
*222 net27\[10\]
*223 net27\[1\]
*224 net27\[2\]
*225 net27\[3\]
*226 net27\[4\]
*227 net27\[5\]
*228 net27\[6\]
*229 net27\[7\]
*230 net27\[8\]
*231 net27\[9\]
*232 net28\[0\]
*233 net28\[10\]
*234 net28\[1\]
*235 net28\[2\]
*236 net28\[3\]
*237 net28\[4\]
*238 net28\[5\]
*239 net28\[6\]
*240 net28\[7\]
*241 net28\[8\]
*242 net28\[9\]
*243 net29\[0\]
*244 net29\[10\]
*245 net29\[1\]
*246 net29\[2\]
*247 net29\[3\]
*248 net29\[4\]
*249 net29\[5\]
*250 net29\[6\]
*251 net29\[7\]
*252 net29\[8\]
*253 net29\[9\]
*254 net3
*255 net30\[0\]
*256 net30\[10\]
*257 net30\[1\]
*258 net30\[2\]
*259 net30\[3\]
*260 net30\[4\]
*261 net30\[5\]
*262 net30\[6\]
*263 net30\[7\]
*264 net30\[8\]
*265 net30\[9\]
*266 net31\[0\]
*267 net31\[10\]
*268 net31\[1\]
*269 net31\[2\]
*270 net31\[3\]
*271 net31\[4\]
*272 net31\[5\]
*273 net31\[6\]
*274 net31\[7\]
*275 net31\[8\]
*276 net31\[9\]
*277 net32
*278 net33
*279 net34\[0\]
*280 net34\[10\]
*281 net34\[1\]
*282 net34\[2\]
*283 net34\[3\]
*284 net34\[4\]
*285 net34\[5\]
*286 net34\[6\]
*287 net34\[7\]
*288 net34\[8\]
*289 net34\[9\]
*290 net35
*291 net36
*292 net37
*293 net38
*294 net39\[0\]
*295 net39\[1\]
*296 net39\[2\]
*297 net39\[3\]
*298 net39\[4\]
*299 net39\[5\]
*300 net4
*301 net40
*302 net41
*303 net42\[0\]
*304 net42\[1\]
*305 net42\[2\]
*306 net42\[3\]
*307 net42\[4\]
*308 net42\[5\]
*309 net43\[0\]
*310 net43\[1\]
*311 net43\[2\]
*312 net43\[3\]
*313 net43\[4\]
*314 net43\[5\]
*315 net44\[0\]
*316 net44\[1\]
*317 net44\[2\]
*318 net44\[3\]
*319 net44\[4\]
*320 net44\[5\]
*321 net45
*322 net5
*323 net6
*324 net7
*325 net8
*326 net9
*327 ANTENNA_1
*328 FILLER_0_0_102
*329 FILLER_0_0_113
*330 FILLER_0_0_126
*331 FILLER_0_0_138
*332 FILLER_0_0_144
*333 FILLER_0_0_16
*334 FILLER_0_0_160
*335 FILLER_0_0_167
*336 FILLER_0_0_177
*337 FILLER_0_0_184
*338 FILLER_0_0_197
*339 FILLER_0_0_238
*340 FILLER_0_0_242
*341 FILLER_0_0_251
*342 FILLER_0_0_253
*343 FILLER_0_0_265
*344 FILLER_0_0_269
*345 FILLER_0_0_281
*346 FILLER_0_0_287
*347 FILLER_0_0_29
*348 FILLER_0_0_3
*349 FILLER_0_0_41
*350 FILLER_0_0_77
*351 FILLER_0_0_95
*352 FILLER_0_1_100
*353 FILLER_0_1_110
*354 FILLER_0_1_113
*355 FILLER_0_1_128
*356 FILLER_0_1_135
*357 FILLER_0_1_142
*358 FILLER_0_1_19
*359 FILLER_0_1_222
*360 FILLER_0_1_228
*361 FILLER_0_1_240
*362 FILLER_0_1_244
*363 FILLER_0_1_250
*364 FILLER_0_1_254
*365 FILLER_0_1_265
*366 FILLER_0_1_276
*367 FILLER_0_1_281
*368 FILLER_0_1_287
*369 FILLER_0_1_3
*370 FILLER_0_1_31
*371 FILLER_0_1_39
*372 FILLER_0_1_46
*373 FILLER_0_2_159
*374 FILLER_0_2_195
*375 FILLER_0_2_197
*376 FILLER_0_2_20
*377 FILLER_0_2_218
*378 FILLER_0_2_231
*379 FILLER_0_2_237
*380 FILLER_0_2_248
*381 FILLER_0_2_253
*382 FILLER_0_2_26
*383 FILLER_0_2_266
*384 FILLER_0_2_273
*385 FILLER_0_2_284
*386 FILLER_0_2_34
*387 FILLER_0_2_38
*388 FILLER_0_2_49
*389 FILLER_0_2_79
*390 FILLER_0_3_108
*391 FILLER_0_3_116
*392 FILLER_0_3_147
*393 FILLER_0_3_172
*394 FILLER_0_3_186
*395 FILLER_0_3_233
*396 FILLER_0_3_244
*397 FILLER_0_3_255
*398 FILLER_0_3_264
*399 FILLER_0_3_273
*400 FILLER_0_3_281
*401 FILLER_0_3_287
*402 FILLER_0_3_29
*403 FILLER_0_3_3
*404 FILLER_0_3_41
*405 FILLER_0_3_49
*406 FILLER_0_3_55
*407 FILLER_0_3_57
*408 FILLER_0_3_9
*409 FILLER_0_4_11
*410 FILLER_0_4_132
*411 FILLER_0_4_153
*412 FILLER_0_4_167
*413 FILLER_0_4_179
*414 FILLER_0_4_194
*415 FILLER_0_4_20
*416 FILLER_0_4_210
*417 FILLER_0_4_219
*418 FILLER_0_4_231
*419 FILLER_0_4_268
*420 FILLER_0_4_285
*421 FILLER_0_4_29
*422 FILLER_0_4_3
*423 FILLER_0_4_49
*424 FILLER_0_4_53
*425 FILLER_0_4_74
*426 FILLER_0_4_79
*427 FILLER_0_4_88
*428 FILLER_0_5_100
*429 FILLER_0_5_109
*430 FILLER_0_5_113
*431 FILLER_0_5_117
*432 FILLER_0_5_156
*433 FILLER_0_5_175
*434 FILLER_0_5_190
*435 FILLER_0_5_20
*436 FILLER_0_5_222
*437 FILLER_0_5_233
*438 FILLER_0_5_237
*439 FILLER_0_5_243
*440 FILLER_0_5_264
*441 FILLER_0_5_286
*442 FILLER_0_5_37
*443 FILLER_0_5_51
*444 FILLER_0_5_55
*445 FILLER_0_5_57
*446 FILLER_0_5_69
*447 FILLER_0_5_96
*448 FILLER_0_6_106
*449 FILLER_0_6_11
*450 FILLER_0_6_118
*451 FILLER_0_6_129
*452 FILLER_0_6_170
*453 FILLER_0_6_191
*454 FILLER_0_6_195
*455 FILLER_0_6_218
*456 FILLER_0_6_241
*457 FILLER_0_6_249
*458 FILLER_0_6_29
*459 FILLER_0_6_3
*460 FILLER_0_6_49
*461 FILLER_0_6_55
*462 FILLER_0_6_76
*463 FILLER_0_6_81
*464 FILLER_0_6_85
*465 FILLER_0_7_111
*466 FILLER_0_7_122
*467 FILLER_0_7_134
*468 FILLER_0_7_14
*469 FILLER_0_7_140
*470 FILLER_0_7_164
*471 FILLER_0_7_18
*472 FILLER_0_7_185
*473 FILLER_0_7_208
*474 FILLER_0_7_214
*475 FILLER_0_7_223
*476 FILLER_0_7_225
*477 FILLER_0_7_229
*478 FILLER_0_7_24
*479 FILLER_0_7_250
*480 FILLER_0_7_258
*481 FILLER_0_7_270
*482 FILLER_0_7_279
*483 FILLER_0_7_286
*484 FILLER_0_7_3
*485 FILLER_0_7_30
*486 FILLER_0_7_39
*487 FILLER_0_7_46
*488 FILLER_0_7_55
*489 FILLER_0_7_60
*490 FILLER_0_7_68
*491 FILLER_0_8_101
*492 FILLER_0_8_108
*493 FILLER_0_8_117
*494 FILLER_0_8_123
*495 FILLER_0_8_129
*496 FILLER_0_8_137
*497 FILLER_0_8_158
*498 FILLER_0_8_166
*499 FILLER_0_8_175
*500 FILLER_0_8_195
*501 FILLER_0_8_200
*502 FILLER_0_8_204
*503 FILLER_0_8_234
*504 FILLER_0_8_246
*505 FILLER_0_8_253
*506 FILLER_0_8_26
*507 FILLER_0_8_265
*508 FILLER_0_8_277
*509 FILLER_0_8_38
*510 FILLER_0_8_55
*511 FILLER_0_8_63
*512 FILLER_0_8_80
*513 FILLER_0_9_113
*514 FILLER_0_9_150
*515 FILLER_0_9_162
*516 FILLER_0_9_174
*517 FILLER_0_9_191
*518 FILLER_0_9_195
*519 FILLER_0_9_197
*520 FILLER_0_9_225
*521 FILLER_0_9_237
*522 FILLER_0_9_249
*523 FILLER_0_9_253
*524 FILLER_0_9_265
*525 FILLER_0_9_277
*526 FILLER_0_9_281
*527 FILLER_0_9_287
*528 FILLER_0_9_29
*529 FILLER_0_9_3
*530 FILLER_0_9_37
*531 FILLER_0_9_57
*532 FILLER_0_9_75
*533 FILLER_0_9_83
*534 FILLER_0_9_85
*535 PHY_EDGE_ROW_0_Left_10
*536 PHY_EDGE_ROW_0_Right_0
*537 PHY_EDGE_ROW_1_Left_11
*538 PHY_EDGE_ROW_1_Right_1
*539 PHY_EDGE_ROW_2_Left_12
*540 PHY_EDGE_ROW_2_Right_2
*541 PHY_EDGE_ROW_3_Left_13
*542 PHY_EDGE_ROW_3_Right_3
*543 PHY_EDGE_ROW_4_Left_14
*544 PHY_EDGE_ROW_4_Right_4
*545 PHY_EDGE_ROW_5_Left_15
*546 PHY_EDGE_ROW_5_Right_5
*547 PHY_EDGE_ROW_6_Left_16
*548 PHY_EDGE_ROW_6_Right_6
*549 PHY_EDGE_ROW_7_Left_17
*550 PHY_EDGE_ROW_7_Right_7
*551 PHY_EDGE_ROW_8_Left_18
*552 PHY_EDGE_ROW_8_Right_8
*553 PHY_EDGE_ROW_9_Left_19
*554 PHY_EDGE_ROW_9_Right_9
*555 TAP_TAPCELL_ROW_0_20
*556 TAP_TAPCELL_ROW_0_21
*557 TAP_TAPCELL_ROW_0_22
*558 TAP_TAPCELL_ROW_0_23
*559 TAP_TAPCELL_ROW_0_24
*560 TAP_TAPCELL_ROW_0_25
*561 TAP_TAPCELL_ROW_0_26
*562 TAP_TAPCELL_ROW_0_27
*563 TAP_TAPCELL_ROW_0_28
*564 TAP_TAPCELL_ROW_0_29
*565 TAP_TAPCELL_ROW_1_30
*566 TAP_TAPCELL_ROW_1_31
*567 TAP_TAPCELL_ROW_1_32
*568 TAP_TAPCELL_ROW_1_33
*569 TAP_TAPCELL_ROW_1_34
*570 TAP_TAPCELL_ROW_2_35
*571 TAP_TAPCELL_ROW_2_36
*572 TAP_TAPCELL_ROW_2_37
*573 TAP_TAPCELL_ROW_2_38
*574 TAP_TAPCELL_ROW_2_39
*575 TAP_TAPCELL_ROW_3_40
*576 TAP_TAPCELL_ROW_3_41
*577 TAP_TAPCELL_ROW_3_42
*578 TAP_TAPCELL_ROW_3_43
*579 TAP_TAPCELL_ROW_3_44
*580 TAP_TAPCELL_ROW_4_45
*581 TAP_TAPCELL_ROW_4_46
*582 TAP_TAPCELL_ROW_4_47
*583 TAP_TAPCELL_ROW_4_48
*584 TAP_TAPCELL_ROW_4_49
*585 TAP_TAPCELL_ROW_5_50
*586 TAP_TAPCELL_ROW_5_51
*587 TAP_TAPCELL_ROW_5_52
*588 TAP_TAPCELL_ROW_5_53
*589 TAP_TAPCELL_ROW_5_54
*590 TAP_TAPCELL_ROW_6_55
*591 TAP_TAPCELL_ROW_6_56
*592 TAP_TAPCELL_ROW_6_57
*593 TAP_TAPCELL_ROW_6_58
*594 TAP_TAPCELL_ROW_6_59
*595 TAP_TAPCELL_ROW_7_60
*596 TAP_TAPCELL_ROW_7_61
*597 TAP_TAPCELL_ROW_7_62
*598 TAP_TAPCELL_ROW_7_63
*599 TAP_TAPCELL_ROW_7_64
*600 TAP_TAPCELL_ROW_8_65
*601 TAP_TAPCELL_ROW_8_66
*602 TAP_TAPCELL_ROW_8_67
*603 TAP_TAPCELL_ROW_8_68
*604 TAP_TAPCELL_ROW_8_69
*605 TAP_TAPCELL_ROW_9_70
*606 TAP_TAPCELL_ROW_9_71
*607 TAP_TAPCELL_ROW_9_72
*608 TAP_TAPCELL_ROW_9_73
*609 TAP_TAPCELL_ROW_9_74
*610 TAP_TAPCELL_ROW_9_75
*611 TAP_TAPCELL_ROW_9_76
*612 TAP_TAPCELL_ROW_9_77
*613 TAP_TAPCELL_ROW_9_78
*614 TAP_TAPCELL_ROW_9_79
*615 x1
*616 x10
*617 x10_0
*618 x10_1
*619 x10_10
*620 x10_2
*621 x10_3
*622 x10_4
*623 x10_5
*624 x10_6
*625 x10_7
*626 x10_8
*627 x10_9
*628 x11
*629 x11_0
*630 x11_1
*631 x11_10
*632 x11_2
*633 x11_3
*634 x11_4
*635 x11_5
*636 x11_6
*637 x11_7
*638 x11_8
*639 x11_9
*640 x12
*641 x12_0
*642 x12_1
*643 x12_10
*644 x12_2
*645 x12_3
*646 x12_4
*647 x12_5
*648 x12_6
*649 x12_7
*650 x12_8
*651 x12_9
*652 x13
*653 x13_0
*654 x13_1
*655 x13_2
*656 x13_3
*657 x13_4
*658 x13_5
*659 x14
*660 x14_0
*661 x14_1
*662 x14_2
*663 x14_3
*664 x14_4
*665 x14_5
*666 x15
*667 x16
*668 x17
*669 x18
*670 x19
*671 x1_0
*672 x1_1
*673 x1_10
*674 x1_11
*675 x1_2
*676 x1_3
*677 x1_4
*678 x1_5
*679 x1_6
*680 x1_7
*681 x1_8
*682 x1_9
*683 x2
*684 x20
*685 x21
*686 x21_0
*687 x21_1
*688 x21_10
*689 x21_2
*690 x21_3
*691 x21_4
*692 x21_5
*693 x21_6
*694 x21_7
*695 x21_8
*696 x21_9
*697 x22
*698 x23
*699 x24
*700 x25
*701 x26
*702 x27
*703 x28
*704 x29
*705 x2_0
*706 x2_1
*707 x2_10
*708 x2_2
*709 x2_3
*710 x2_4
*711 x2_5
*712 x2_6
*713 x2_7
*714 x2_8
*715 x2_9
*716 x3
*717 x30
*718 x31
*719 x32
*720 x33
*721 x34
*722 x35
*723 x36
*724 x37
*725 x38
*726 x38_0
*727 x38_1
*728 x38_10
*729 x38_2
*730 x38_3
*731 x38_4
*732 x38_5
*733 x38_6
*734 x38_7
*735 x38_8
*736 x38_9
*737 x39
*738 x3_0
*739 x3_1
*740 x3_10
*741 x3_2
*742 x3_3
*743 x3_4
*744 x3_5
*745 x3_6
*746 x3_7
*747 x3_8
*748 x3_9
*749 x4
*750 x40
*751 x41
*752 x41_0
*753 x41_1
*754 x41_10
*755 x41_11
*756 x41_2
*757 x41_3
*758 x41_4
*759 x41_5
*760 x41_6
*761 x41_7
*762 x41_8
*763 x41_9
*764 x42
*765 x42_0
*766 x42_1
*767 x42_10
*768 x42_2
*769 x42_3
*770 x42_4
*771 x42_5
*772 x42_6
*773 x42_7
*774 x42_8
*775 x42_9
*776 x43
*777 x43_0
*778 x43_1
*779 x43_10
*780 x43_2
*781 x43_3
*782 x43_4
*783 x43_5
*784 x43_6
*785 x43_7
*786 x43_8
*787 x43_9
*788 x44
*789 x44_0
*790 x44_1
*791 x44_10
*792 x44_2
*793 x44_3
*794 x44_4
*795 x44_5
*796 x44_6
*797 x44_7
*798 x44_8
*799 x44_9
*800 x45
*801 x45_0
*802 x45_1
*803 x45_10
*804 x45_11
*805 x45_2
*806 x45_3
*807 x45_4
*808 x45_5
*809 x45_6
*810 x45_7
*811 x45_8
*812 x45_9
*813 x46
*814 x46_0
*815 x46_1
*816 x46_10
*817 x46_11
*818 x46_2
*819 x46_3
*820 x46_4
*821 x46_5
*822 x46_6
*823 x46_7
*824 x46_8
*825 x46_9
*826 x47
*827 x48
*828 x49
*829 x4_0
*830 x4_1
*831 x4_10
*832 x4_2
*833 x4_3
*834 x4_4
*835 x4_5
*836 x4_6
*837 x4_7
*838 x4_8
*839 x4_9
*840 x5
*841 x50
*842 x51
*843 x52
*844 x53
*845 x54
*846 x55
*847 x56
*848 x57
*849 x58
*850 x59
*851 x5_0
*852 x5_1
*853 x5_10
*854 x5_11
*855 x5_2
*856 x5_3
*857 x5_4
*858 x5_5
*859 x5_6
*860 x5_7
*861 x5_8
*862 x5_9
*863 x6
*864 x60
*865 x60_0
*866 x60_1
*867 x60_2
*868 x60_3
*869 x60_4
*870 x60_5
*871 x61
*872 x61_0
*873 x61_1
*874 x61_2
*875 x61_3
*876 x61_4
*877 x61_5
*878 x62
*879 x63
*880 x64
*881 x65
*882 x66
*883 x6_0
*884 x6_1
*885 x6_2
*886 x6_3
*887 x6_4
*888 x6_5
*889 x7
*890 x7_0
*891 x7_1
*892 x7_10
*893 x7_2
*894 x7_3
*895 x7_4
*896 x7_5
*897 x7_6
*898 x7_7
*899 x7_8
*900 x7_9
*901 x8
*902 x8_0
*903 x8_1
*904 x8_10
*905 x8_2
*906 x8_3
*907 x8_4
*908 x8_5
*909 x8_6
*910 x8_7
*911 x8_8
*912 x8_9
*913 x9
*914 x9_0
*915 x9_1
*916 x9_10
*917 x9_2
*918 x9_3
*919 x9_4
*920 x9_5
*921 x9_6
*922 x9_7
*923 x9_8
*924 x9_9

*PORTS
CLK_DATA O
COMP_N I
COMP_P I
DAC_SETTLE O
DAC_SETTLE_D I
DATA[0] O
DATA[1] O
DATA[2] O
DATA[3] O
DATA[4] O
DATA[5] O
DEBUG_MUX[0] I
DEBUG_MUX[1] I
DEBUG_MUX[2] I
DEBUG_MUX[3] I
DEBUG_OUT O
EN_COMP O
EN_OFFSET_CAL I
EN_OFFSET_CAL_O O
EN_VCM_SW_O O
HI O
LO O
OFFSET_CAL_CYCLE O
RST_Z I
SAMPLE_D I
SAMPLE_O O
START I
VCM_DUMMY_O O
VCM_O[0] O
VCM_O[10] O
VCM_O[1] O
VCM_O[2] O
VCM_O[3] O
VCM_O[4] O
VCM_O[5] O
VCM_O[6] O
VCM_O[7] O
VCM_O[8] O
VCM_O[9] O
VIN_N_SW_ON I
VIN_P_SW_ON I
VREF_Z_N_O[0] O
VREF_Z_N_O[10] O
VREF_Z_N_O[1] O
VREF_Z_N_O[2] O
VREF_Z_N_O[3] O
VREF_Z_N_O[4] O
VREF_Z_N_O[5] O
VREF_Z_N_O[6] O
VREF_Z_N_O[7] O
VREF_Z_N_O[8] O
VREF_Z_N_O[9] O
VREF_Z_P_O[0] O
VREF_Z_P_O[10] O
VREF_Z_P_O[1] O
VREF_Z_P_O[2] O
VREF_Z_P_O[3] O
VREF_Z_P_O[4] O
VREF_Z_P_O[5] O
VREF_Z_P_O[6] O
VREF_Z_P_O[7] O
VREF_Z_P_O[8] O
VREF_Z_P_O[9] O
VSS_N_O[0] O
VSS_N_O[10] O
VSS_N_O[1] O
VSS_N_O[2] O
VSS_N_O[3] O
VSS_N_O[4] O
VSS_N_O[5] O
VSS_N_O[6] O
VSS_N_O[7] O
VSS_N_O[8] O
VSS_N_O[9] O
VSS_P_O[0] O
VSS_P_O[10] O
VSS_P_O[1] O
VSS_P_O[2] O
VSS_P_O[3] O
VSS_P_O[4] O
VSS_P_O[5] O
VSS_P_O[6] O
VSS_P_O[7] O
VSS_P_O[8] O
VSS_P_O[9] O

*D_NET *1 0.00162642
*CONN
*P CLK_DATA O
*I *881:Y O *D sky130_fd_sc_hd__inv_16
*CAP
1 CLK_DATA 0.000769894
2 *881:Y 0.000769894
3 CLK_DATA VREF_Z_P_O[10] 8.66285e-05
4 CLK_DATA VREF_Z_P_O[9] 0
*RES
1 *881:Y CLK_DATA 16.665 
*END

*D_NET *2 0.0131822
*CONN
*P COMP_N I
*I *717:B I *D sky130_fd_sc_hd__nand2_1
*I *841:A3 I *D sky130_fd_sc_hd__mux4_1
*CAP
1 COMP_N 0.0026412
2 *717:B 0.000116299
3 *841:A3 0
4 *2:13 0.0027575
5 *717:B DAC_SETTLE 9.94983e-05
6 *717:B *698:A_N 7.9642e-06
7 *717:B *700:A 0.000155491
8 *717:B *721:A3 4.76263e-05
9 *717:B *841:S0 7.32639e-05
10 *717:B *864:A2 9.76851e-07
11 *717:B *103:25 0.000155491
12 *2:13 DAC_SETTLE 0.00458842
13 *2:13 VCM_O[8] 0
14 *2:13 VCM_O[9] 0
15 *2:13 *638:B 0
16 *2:13 *673:RESET_B 0
17 *2:13 *674:CLK 0.000155022
18 *2:13 *737:A 0.00175662
19 *2:13 *755:B 0
20 *2:13 *841:S0 3.54057e-05
21 *2:13 *864:A2 0.000175737
22 *2:13 *94:18 0.000251667
23 *2:13 *101:34 0.000163982
24 *2:13 *106:44 0
*RES
1 COMP_N *2:13 22.5731 
2 *2:13 *841:A3 3.6 
3 *2:13 *717:B 6.975 
*END

*D_NET *3 0.0219196
*CONN
*P COMP_P I
*I *820:A1 I *D sky130_fd_sc_hd__mux2_1
*I *819:A1 I *D sky130_fd_sc_hd__mux2_1
*I *814:A1 I *D sky130_fd_sc_hd__mux2_1
*I *824:A1 I *D sky130_fd_sc_hd__mux2_1
*I *825:A1 I *D sky130_fd_sc_hd__mux2_1
*I *717:A I *D sky130_fd_sc_hd__nand2_1
*I *841:A2 I *D sky130_fd_sc_hd__mux4_1
*I *817:A1 I *D sky130_fd_sc_hd__mux2_1
*I *816:A1 I *D sky130_fd_sc_hd__mux2_1
*I *821:A1 I *D sky130_fd_sc_hd__mux2_1
*I *822:A1 I *D sky130_fd_sc_hd__mux2_1
*I *823:A1 I *D sky130_fd_sc_hd__mux2_1
*I *815:A1 I *D sky130_fd_sc_hd__mux2_1
*I *818:A1 I *D sky130_fd_sc_hd__mux2_1
*CAP
1 COMP_P 0.000676996
2 *820:A1 0.0001902
3 *819:A1 5.42818e-05
4 *814:A1 0.000360094
5 *824:A1 2.04088e-05
6 *825:A1 7.25539e-05
7 *717:A 4.87606e-05
8 *841:A2 0.000167747
9 *817:A1 0.000617089
10 *816:A1 0
11 *821:A1 0.00016554
12 *822:A1 0.000245208
13 *823:A1 0
14 *815:A1 0
15 *818:A1 0
16 *3:201 0.00052013
17 *3:146 0.000546353
18 *3:124 0.000839773
19 *3:120 0.000816794
20 *3:116 0.000470798
21 *3:101 0.00082824
22 *3:82 0.000795383
23 *3:80 0.000499242
24 *3:65 0.000457378
25 *3:63 0.00124477
26 *3:28 0.000935013
27 *3:22 0.000432006
28 *3:9 0.000783021
29 *717:A *700:A 4.82863e-05
30 *717:A *841:A1 1.05827e-05
31 *717:A *101:20 1.81185e-05
32 *717:A *103:25 4.82863e-05
33 *717:A *107:20 2.77052e-05
34 *814:A1 *727:A 0
35 *814:A1 *729:A 0.000151102
36 *814:A1 *101:143 1.885e-05
37 *814:A1 *105:10 0
38 *814:A1 *158:65 0
39 *814:A1 *158:79 8.65905e-05
40 *817:A1 *652:B 5.83121e-06
41 *817:A1 *658:A0 0
42 *817:A1 *755:B 0
43 *817:A1 *763:B 1.95847e-05
44 *817:A1 *800:B 0
45 *817:A1 *817:S 7.83773e-05
46 *817:A1 *853:RESET_B 0
47 *817:A1 *854:RESET_B 0
48 *817:A1 *135:33 0
49 *817:A1 *147:50 0
50 *817:A1 *148:12 0
51 *819:A1 *757:B 0
52 *819:A1 *819:S 1.08758e-05
53 *819:A1 *151:14 4.99619e-05
54 *819:A1 *155:28 2.05056e-05
55 *820:A1 *820:S 8.7152e-06
56 *820:A1 *856:RESET_B 0
57 *820:A1 *151:14 8.0532e-05
58 *820:A1 *152:22 0.000112893
59 *820:A1 *158:103 4.4132e-05
60 *821:A1 *760:B 0.000124895
61 *821:A1 *808:A 0
62 *821:A1 *823:S 0.000124895
63 *821:A1 *858:D 6.59891e-05
64 *821:A1 *153:58 0
65 *822:A1 *654:A1 0
66 *822:A1 *822:S 0.000201503
67 *822:A1 *823:S 7.00225e-05
68 *822:A1 *859:D 9.0336e-05
69 *822:A1 *918:A 4.26141e-05
70 *822:A1 *101:125 5.80023e-05
71 *822:A1 *194:82 0.000122155
72 *824:A1 *824:S 4.87465e-06
73 *825:A1 *658:A1 3.59531e-06
74 *825:A1 *17:50 8.49205e-05
75 *841:A2 *841:A1 0.00011819
76 *841:A2 *841:S0 9.51379e-05
77 *841:A2 *107:20 5.83722e-05
78 *841:A2 *141:53 7.76858e-05
79 *3:9 *815:A0 0.000198462
80 *3:9 *815:S 1.47347e-05
81 *3:9 *818:A0 4.66108e-05
82 *3:9 *852:RESET_B 0
83 *3:22 *815:A0 5.62474e-05
84 *3:22 *815:S 1.61831e-05
85 *3:28 *753:B 2.8185e-05
86 *3:28 *815:S 5.30673e-05
87 *3:28 *818:S 0.000160641
88 *3:28 *852:RESET_B 4.61701e-06
89 *3:63 *644:A 0.000174508
90 *3:63 *726:A 5.64768e-05
91 *3:63 *729:A 2.78732e-05
92 *3:63 *753:A_N 1.76441e-05
93 *3:63 *753:B 0.000144759
94 *3:63 *809:A 3.26889e-05
95 *3:63 *818:S 0.000169749
96 *3:63 *91:72 3.63701e-06
97 *3:63 *92:22 1.37074e-05
98 *3:63 *101:143 1.65192e-05
99 *3:63 *109:12 9.24075e-05
100 *3:63 *110:40 7.06865e-05
101 *3:63 *111:60 0.0003802
102 *3:63 *138:26 0.000177069
103 *3:63 *154:47 0.000509445
104 *3:63 *155:12 2.30292e-05
105 *3:63 *155:28 0.000102532
106 *3:80 *654:A1 9.04308e-05
107 *3:80 *810:A 8.49205e-05
108 *3:80 *823:S 0.000309612
109 *3:80 *859:RESET_B 0
110 *3:80 *142:8 0.000160635
111 *3:80 *155:10 1.37864e-05
112 *3:80 *155:12 0.000268745
113 *3:101 *824:S 8.22234e-06
114 *3:101 *858:RESET_B 4.87317e-05
115 *3:101 *153:58 0.000246223
116 *3:116 *808:A 0
117 *3:116 *858:D 4.97019e-05
118 *3:116 *112:57 0
119 *3:116 *158:34 0
120 *3:120 *97:20 0.000780952
121 *3:120 *139:16 0.000808675
122 *3:124 *762:A_N 1.66925e-05
123 *3:124 *763:B 4.04164e-05
124 *3:146 *97:20 0.000814328
125 *3:146 *97:44 0.000335663
126 *3:146 *139:16 0.00115074
127 *3:201 *815:A0 0
128 *3:201 *852:RESET_B 4.30774e-05
129 *3:201 *855:D 0
130 *3:201 *92:22 5.05066e-06
131 *3:201 *151:14 8.53113e-06
132 *3:201 *158:103 7.08893e-05
*RES
1 COMP_P *3:9 13.175 
2 *3:9 *818:A1 1.6 
3 *3:9 *3:22 3.4775 
4 *3:22 *3:28 3.7175 
5 *3:28 *815:A1 1.6 
6 *3:28 *3:63 27.715 
7 *3:63 *3:65 2 
8 *3:65 *823:A1 1.6 
9 *3:65 *3:80 11.89 
10 *3:80 *3:82 0.36 
11 *3:82 *822:A1 11.3 
12 *3:82 *3:101 8.66 
13 *3:101 *821:A1 6.57 
14 *3:101 *3:116 2.0175 
15 *3:116 *3:120 1.70333 
16 *3:120 *3:124 3.2825 
17 *3:124 *816:A1 3.6 
18 *3:124 *817:A1 12.18 
19 *3:120 *3:146 2.286 
20 *3:146 *841:A2 7.48125 
21 *3:146 *717:A 4.7925 
22 *3:116 *825:A1 4.6275 
23 *3:80 *824:A1 1.96 
24 *3:63 *814:A1 9.345 
25 *3:22 *3:201 4.3125 
26 *3:201 *819:A1 4.755 
27 *3:201 *820:A1 7.275 
*END

*D_NET *4 0.020378
*CONN
*P DAC_SETTLE O
*I *721:A3 I *D sky130_fd_sc_hd__mux4_1
*I *698:X O *D sky130_fd_sc_hd__and2b_1
*CAP
1 DAC_SETTLE 0.00572517
2 *721:A3 0.000188043
3 *698:X 3.69588e-05
4 *4:8 0.00595017
5 DAC_SETTLE VSS_P_O[2] 6.52232e-05
6 DAC_SETTLE *737:A 0.000716237
7 DAC_SETTLE *864:A2 0.000101172
8 DAC_SETTLE *5:9 0.00071415
9 DAC_SETTLE *92:56 0.000331835
10 DAC_SETTLE *96:16 0.000608314
11 DAC_SETTLE *139:16 0.000298277
12 DAC_SETTLE *143:18 0.000310171
13 *721:A3 *698:A_N 0.000146596
14 *721:A3 *721:A2 3.64998e-06
15 *721:A3 *864:A2 0.000199275
16 *721:A3 *102:35 7.20129e-05
17 *721:A3 *144:37 0.000128545
18 *4:8 *103:25 4.66108e-05
19 *717:B DAC_SETTLE 9.94983e-05
20 *717:B *721:A3 4.76263e-05
21 *2:13 DAC_SETTLE 0.00458842
*RES
1 *698:X *4:8 4.05 
2 *4:8 DAC_SETTLE 21.8713 
3 *4:8 *721:A3 8.43 
*END

*D_NET *5 0.0154245
*CONN
*P DAC_SETTLE_D I
*I *841:A0 I *D sky130_fd_sc_hd__mux4_1
*I *702:A I *D sky130_fd_sc_hd__inv_1
*CAP
1 DAC_SETTLE_D 0.000304207
2 *841:A0 0
3 *702:A 0.000121084
4 *5:19 0.000673386
5 *5:9 0.00155086
6 *5:7 0.00130276
7 *702:A EN_VCM_SW_O 0.000106377
8 *702:A *700:A 3.87388e-05
9 *702:A *776:B 7.9642e-06
10 *702:A *101:20 0.000107608
11 *702:A *103:25 2.08735e-05
12 *5:7 *25:25 0
13 *5:7 *95:18 1.71013e-05
14 *5:9 *92:56 0.0030538
15 *5:9 *95:16 0.00462004
16 *5:9 *96:16 0.00136245
17 *5:9 *194:43 0.000696899
18 *5:19 EN_VCM_SW_O 1.4548e-05
19 *5:19 VCM_O[7] 0
20 *5:19 VCM_O[8] 0
21 *5:19 *638:B 0
22 *5:19 *649:A 0
23 *5:19 *694:A 0.000130027
24 *5:19 *734:A 5.30324e-05
25 *5:19 *735:A 0
26 *5:19 *841:A1 8.51862e-05
27 *5:19 *922:A 0
28 *5:19 *97:14 1.56296e-05
29 *5:19 *101:69 0.000145119
30 *5:19 *101:85 0.000189912
31 *5:19 *116:22 0
32 *5:19 *141:53 9.27326e-05
33 DAC_SETTLE *5:9 0.00071415
*RES
1 DAC_SETTLE_D *5:7 7.535 
2 *5:7 *5:9 52.2 
3 *5:9 *5:19 14.365 
4 *5:19 *702:A 8.38625 
5 *5:19 *841:A0 1.6 
*END

*D_NET *6 0.00129881
*CONN
*P DATA[0] O
*I *660:Y O *D sky130_fd_sc_hd__inv_16
*CAP
1 DATA[0] 0.000646724
2 *660:Y 0.000646724
3 DATA[0] *904:A 5.35969e-06
*RES
1 *660:Y DATA[0] 13.77 
*END

*D_NET *7 0.00102208
*CONN
*P DATA[1] O
*I *661:Y O *D sky130_fd_sc_hd__inv_16
*CAP
1 DATA[1] 0.000511041
2 *661:Y 0.000511041
*RES
1 *661:Y DATA[1] 12.39 
*END

*D_NET *8 0.000999527
*CONN
*P DATA[2] O
*I *662:Y O *D sky130_fd_sc_hd__inv_16
*CAP
1 DATA[2] 0.000499763
2 *662:Y 0.000499763
*RES
1 *662:Y DATA[2] 12.39 
*END

*D_NET *9 0.00166004
*CONN
*P DATA[3] O
*I *663:Y O *D sky130_fd_sc_hd__inv_16
*CAP
1 DATA[3] 0.000794458
2 *663:Y 0.000794458
3 DATA[3] *663:A 0
4 DATA[3] *867:A 4.18603e-06
5 DATA[3] *112:57 0
6 DATA[3] *148:23 6.69341e-05
*RES
1 *663:Y DATA[3] 16.74 
*END

*D_NET *10 0.00126888
*CONN
*P DATA[4] O
*I *664:Y O *D sky130_fd_sc_hd__inv_16
*CAP
1 DATA[4] 0.000584876
2 *664:Y 0.000584876
3 DATA[4] *886:A 9.91257e-05
*RES
1 *664:Y DATA[4] 13.425 
*END

*D_NET *11 0.00100092
*CONN
*P DATA[5] O
*I *665:Y O *D sky130_fd_sc_hd__inv_16
*CAP
1 DATA[5] 0.000500461
2 *665:Y 0.000500461
*RES
1 *665:Y DATA[5] 12.495 
*END

*D_NET *12 0.00763175
*CONN
*P DEBUG_MUX[0] I
*I *721:S0 I *D sky130_fd_sc_hd__mux4_1
*I *841:S0 I *D sky130_fd_sc_hd__mux4_1
*I *720:S0 I *D sky130_fd_sc_hd__mux4_1
*I *864:S0 I *D sky130_fd_sc_hd__mux4_1
*CAP
1 DEBUG_MUX[0] 0.00133796
2 *721:S0 0
3 *841:S0 0.000401174
4 *720:S0 0.000201088
5 *864:S0 9.59541e-05
6 *12:61 0.000622406
7 *12:44 0.000647488
8 *12:27 0.00165908
9 *720:S0 *666:A 3.46842e-05
10 *720:S0 *720:A2 1.10377e-05
11 *720:S0 *720:A3 4.18603e-06
12 *720:S0 *117:41 1.76793e-05
13 *841:S0 *698:A_N 8.87693e-05
14 *841:S0 *720:A2 4.52831e-05
15 *841:S0 *104:159 0.000126561
16 *841:S0 *141:53 2.44354e-06
17 *864:S0 *704:A_N 1.70935e-05
18 *864:S0 *720:A2 3.62403e-05
19 *864:S0 *720:S1 0.000109925
20 *12:27 *718:A 9.21178e-05
21 *12:27 *718:C 5.28255e-05
22 *12:27 *720:S1 8.7152e-06
23 *12:27 *723:B 4.14953e-05
24 *12:27 *764:A0 3.1562e-06
25 *12:27 *764:A2 0.000192125
26 *12:27 *764:A3 9.0444e-05
27 *12:27 *846:A 0.000142078
28 *12:27 *847:A 9.17166e-05
29 *12:27 *880:A 0.000141599
30 *12:27 *18:32 5.19976e-05
31 *12:27 *18:38 2.49909e-05
32 *12:27 *90:22 0.000420711
33 *12:44 *720:A2 0
34 *12:44 *720:S1 7.47366e-05
35 *12:44 *723:B 4.30495e-05
36 *12:61 *698:A_N 4.02022e-05
37 *12:61 *720:A2 0.00026616
38 *12:61 *720:A3 8.1385e-05
39 *12:61 *864:A0 0.000109389
40 *717:B *841:S0 7.32639e-05
41 *841:A2 *841:S0 9.51379e-05
42 *2:13 *841:S0 3.54057e-05
*RES
1 DEBUG_MUX[0] *12:27 31.0925 
2 *12:27 *864:S0 5.8125 
3 *12:27 *12:44 5.1725 
4 *12:44 *720:S0 8.3 
5 *12:44 *12:61 7.205 
6 *12:61 *841:S0 10.23 
7 *12:61 *721:S0 3.6 
*END

*D_NET *13 0.00746267
*CONN
*P DEBUG_MUX[1] I
*I *864:S1 I *D sky130_fd_sc_hd__mux4_1
*I *720:S1 I *D sky130_fd_sc_hd__mux4_1
*I *721:S1 I *D sky130_fd_sc_hd__mux4_1
*I *841:S1 I *D sky130_fd_sc_hd__mux4_1
*CAP
1 DEBUG_MUX[1] 0.00204189
2 *864:S1 1.68199e-05
3 *720:S1 0.000244771
4 *721:S1 0
5 *841:S1 0.000399027
6 *13:15 0.000468897
7 *13:13 0.000473479
8 *13:9 0.00221755
9 *720:S1 *704:A_N 1.9021e-05
10 *720:S1 *723:B 7.92788e-05
11 *841:S1 *704:A_N 3.82558e-05
12 *841:S1 *721:A2 3.59531e-06
13 *841:S1 *723:B 0.000168675
14 *841:S1 *764:A2 0
15 *841:S1 *104:159 0
16 *841:S1 *104:198 2.8531e-05
17 *841:S1 *104:202 3.09774e-05
18 *841:S1 *141:53 7.89269e-05
19 *864:S1 *764:A2 5.07376e-05
20 *864:S1 *843:B 5.07376e-05
21 *13:9 VREF_Z_N_O[4] 6.18832e-05
22 *13:9 VREF_Z_N_O[5] 0
23 *13:9 *685:B 0
24 *13:9 *719:A 2.75229e-05
25 *13:9 *788:CLK 0.000146948
26 *13:9 *847:A 0.000203387
27 *13:9 *105:69 0.000109989
28 *13:9 *105:77 9.27326e-05
29 *13:9 *140:37 4.65607e-05
30 *13:13 *864:A2 1.10377e-05
31 *13:13 *105:62 3.1835e-05
32 *13:13 *105:69 2.90695e-05
33 *13:15 *721:A2 4.59386e-05
34 *13:15 *723:B 5.1211e-05
35 *864:S0 *720:S1 0.000109925
36 *12:27 *720:S1 8.7152e-06
37 *12:44 *720:S1 7.47366e-05
*RES
1 DEBUG_MUX[1] *13:9 31.64 
2 *13:9 *13:13 3.83 
3 *13:13 *13:15 1.38 
4 *13:15 *841:S1 10.485 
5 *13:15 *721:S1 3.6 
6 *13:13 *720:S1 8.19 
7 *13:9 *864:S1 6.215 
*END

*D_NET *14 0.00503795
*CONN
*P DEBUG_MUX[2] I
*I *764:S0 I *D sky130_fd_sc_hd__mux4_4
*CAP
1 DEBUG_MUX[2] 0.00145592
2 *764:S0 0.00145592
3 *764:S0 VREF_Z_N_O[9] 0
4 *764:S0 *764:S1 0.00179105
5 *764:S0 *136:47 0.000335056
*RES
1 DEBUG_MUX[2] *764:S0 29.3675 
*END

*D_NET *15 0.00643547
*CONN
*P DEBUG_MUX[3] I
*I *764:S1 I *D sky130_fd_sc_hd__mux4_4
*CAP
1 DEBUG_MUX[3] 0.00173358
2 *764:S1 0.00173358
3 *764:S1 VREF_Z_N_O[10] 0
4 *764:S1 VREF_Z_N_O[7] 0.000210266
5 *764:S1 VREF_Z_N_O[8] 0
6 *764:S1 *740:A 7.35813e-05
7 *764:S1 *764:A3 4.99619e-05
8 *764:S1 *779:A 0
9 *764:S1 *879:A 0.000281338
10 *764:S1 *136:47 0.000562111
11 *764:S0 *764:S1 0.00179105
*RES
1 DEBUG_MUX[3] *764:S1 41.7 
*END

*D_NET *16 0.00546391
*CONN
*P DEBUG_OUT O
*I *880:Y O *D sky130_fd_sc_hd__inv_16
*CAP
1 DEBUG_OUT 0.00249028
2 *880:Y 0.00249028
3 DEBUG_OUT *685:A 3.00381e-05
4 DEBUG_OUT *685:B 8.40213e-05
5 DEBUG_OUT *42:11 0.000346683
6 DEBUG_OUT *90:26 2.26018e-05
*RES
1 *880:Y DEBUG_OUT 38.335 
*END

*D_NET *17 0.0146097
*CONN
*P EN_COMP O
*I *721:A1 I *D sky130_fd_sc_hd__mux4_1
*I *826:Y O *D sky130_fd_sc_hd__inv_4
*CAP
1 EN_COMP 0.00106715
2 *721:A1 0.000393038
3 *826:Y 5.09313e-05
4 *17:50 0.00220902
5 *17:8 0.00293407
6 EN_COMP *708:B_N 0.000110842
7 EN_COMP *710:B_N 0
8 EN_COMP *753:A_N 6.63219e-06
9 EN_COMP *815:A0 0
10 EN_COMP *893:A 0
11 EN_COMP *96:22 0.000163787
12 EN_COMP *101:202 0.000284183
13 EN_COMP *101:213 0.000206587
14 EN_COMP *137:14 0.000202142
15 EN_COMP *149:14 0.000104048
16 EN_COMP *149:22 1.54111e-05
17 EN_COMP *154:47 6.27968e-05
18 *721:A1 *721:A0 6.03014e-05
19 *721:A1 *737:A 0.000149534
20 *721:A1 *762:A_N 0.000160635
21 *721:A1 *762:B 0.000177879
22 *721:A1 *825:S 0.000356395
23 *721:A1 *106:16 7.0796e-05
24 *721:A1 *107:32 0.000198217
25 *721:A1 *107:34 0.000234685
26 *721:A1 *116:22 0.000411968
27 *721:A1 *141:53 0.000480818
28 *721:A1 *144:37 0.00057429
29 *17:8 *907:A 0
30 *17:8 *101:213 9.44791e-05
31 *17:50 *654:A0 0.000132588
32 *17:50 *654:A1 0.000133933
33 *17:50 *658:A1 0.000252933
34 *17:50 *671:D 6.6925e-05
35 *17:50 *677:CLK 2.05056e-05
36 *17:50 *808:A 0.000172638
37 *17:50 *825:S 4.49628e-05
38 *17:50 *857:D 4.99619e-05
39 *17:50 *861:D 6.58339e-05