*SPEF "ieee 1481-1999"
*DESIGN "state_machine"
*DATE "20:26:26 Sunday April 14, 2024"
*VENDOR "The OpenROAD Project"
*PROGRAM "OpenROAD"
*VERSION "0889970d1790a2617e69f253221b8bd7626e51dc"
*DESIGN_FLOW "NAME_SCOPE LOCAL" "PIN_CAP NONE"
*DIVIDER /
*DELIMITER :
*BUS_DELIMITER []
*T_UNIT 1 NS
*C_UNIT 1 PF
*R_UNIT 1 OHM
*L_UNIT 1 HENRY

*NAME_MAP
*3 clk
*4 clk_data
*5 comp_n
*6 comp_p
*7 data[0]
*8 data[1]
*9 data[2]
*10 data[3]
*11 data[4]
*12 data[5]
*13 debug_mux[0]
*14 debug_mux[1]
*15 debug_mux[2]
*16 debug_mux[3]
*17 debug_out
*18 en_comp
*19 en_offset_cal
*20 en_offset_cal_o
*21 en_vcm_sw_o
*22 en_vcm_sw_o_i
*23 offset_cal_cycle
*24 rst_z
*25 sample_o
*26 single_ended
*27 start
*28 vcm_dummy_o
*29 vcm_o[0]
*30 vcm_o[10]
*31 vcm_o[1]
*32 vcm_o[2]
*33 vcm_o[3]
*34 vcm_o[4]
*35 vcm_o[5]
*36 vcm_o[6]
*37 vcm_o[7]
*38 vcm_o[8]
*39 vcm_o[9]
*40 vcm_o_i[0]
*41 vcm_o_i[10]
*42 vcm_o_i[1]
*43 vcm_o_i[2]
*44 vcm_o_i[3]
*45 vcm_o_i[4]
*46 vcm_o_i[5]
*47 vcm_o_i[6]
*48 vcm_o_i[7]
*49 vcm_o_i[8]
*50 vcm_o_i[9]
*51 vin_n_sw_on
*52 vin_p_sw_on
*53 vref_z_n_o[0]
*54 vref_z_n_o[10]
*55 vref_z_n_o[1]
*56 vref_z_n_o[2]
*57 vref_z_n_o[3]
*58 vref_z_n_o[4]
*59 vref_z_n_o[5]
*60 vref_z_n_o[6]
*61 vref_z_n_o[7]
*62 vref_z_n_o[8]
*63 vref_z_n_o[9]
*64 vref_z_p_o[0]
*65 vref_z_p_o[10]
*66 vref_z_p_o[1]
*67 vref_z_p_o[2]
*68 vref_z_p_o[3]
*69 vref_z_p_o[4]
*70 vref_z_p_o[5]
*71 vref_z_p_o[6]
*72 vref_z_p_o[7]
*73 vref_z_p_o[8]
*74 vref_z_p_o[9]
*75 vss_n_o[0]
*76 vss_n_o[10]
*77 vss_n_o[1]
*78 vss_n_o[2]
*79 vss_n_o[3]
*80 vss_n_o[4]
*81 vss_n_o[5]
*82 vss_n_o[6]
*83 vss_n_o[7]
*84 vss_n_o[8]
*85 vss_n_o[9]
*86 vss_p_o[0]
*87 vss_p_o[10]
*88 vss_p_o[1]
*89 vss_p_o[2]
*90 vss_p_o[3]
*91 vss_p_o[4]
*92 vss_p_o[5]
*93 vss_p_o[6]
*94 vss_p_o[7]
*95 vss_p_o[8]
*96 vss_p_o[9]
*97 _000_
*98 _001_
*99 _002_
*100 _003_
*101 _004_
*102 _005_
*103 _006_
*104 _007_
*105 _008_
*106 _009_
*107 _010_
*108 _011_
*109 _012_
*110 _013_
*111 _014_
*112 _015_
*113 _016_
*114 _017_
*115 _018_
*116 _019_
*117 _020_
*118 _021_
*119 _022_
*120 _023_
*121 _024_
*122 _025_
*123 _026_
*124 _027_
*125 _028_
*126 _029_
*127 _030_
*128 _031_
*129 _032_
*130 _033_
*131 _034_
*132 _035_
*133 _036_
*134 _037_
*135 _038_
*136 _039_
*137 _040_
*138 _041_
*139 _042_
*140 _043_
*141 _044_
*142 _045_
*143 _046_
*144 _047_
*145 _048_
*146 _049_
*147 _050_
*148 _051_
*149 _052_
*150 _053_
*151 _054_
*152 _055_
*153 _056_
*154 _057_
*155 _058_
*156 _059_
*157 _060_
*158 _061_
*159 _062_
*160 _063_
*161 _064_
*162 _065_
*163 _066_
*164 _067_
*165 _068_
*166 _069_
*167 _070_
*168 _071_
*169 _072_
*170 _073_
*171 _074_
*172 _075_
*173 _076_
*174 _077_
*175 _078_
*176 _079_
*177 _080_
*178 _081_
*179 _082_
*180 _083_
*181 _084_
*182 _085_
*183 _086_
*184 _087_
*185 _088_
*186 _089_
*187 _090_
*188 _091_
*189 _092_
*190 _093_
*191 _094_
*192 _095_
*193 _096_
*194 _097_
*195 _098_
*196 _099_
*197 _100_
*198 _101_
*199 _102_
*200 _103_
*201 _104_
*202 _105_
*203 _106_
*204 _107_
*205 _108_
*206 _109_
*207 _110_
*208 _111_
*209 _112_
*210 _113_
*211 _114_
*212 _115_
*213 _116_
*214 _117_
*215 _118_
*216 _119_
*217 _120_
*218 _121_
*219 _122_
*220 _123_
*221 _124_
*222 _125_
*223 _126_
*224 _127_
*225 _128_
*226 _129_
*227 _130_
*228 _131_
*229 _132_
*230 _133_
*231 _134_
*232 _135_
*233 _136_
*234 _137_
*235 _138_
*236 _139_
*237 _140_
*238 _141_
*239 _142_
*240 _143_
*241 _144_
*242 _145_
*243 _146_
*244 _147_
*245 _148_
*246 _149_
*247 _150_
*248 _151_
*249 _152_
*250 _153_
*251 _154_
*252 _155_
*253 _156_
*254 _157_
*255 _158_
*256 _159_
*257 _160_
*258 _161_
*259 _162_
*260 _163_
*261 _164_
*262 _165_
*263 _166_
*264 _167_
*265 _168_
*266 _169_
*267 _170_
*268 _171_
*269 _172_
*270 _173_
*271 _174_
*272 counter\[0\]
*273 counter\[10\]
*274 counter\[11\]
*275 counter\[1\]
*276 counter\[2\]
*277 counter\[3\]
*278 counter\[4\]
*279 counter\[5\]
*280 counter\[6\]
*281 counter\[7\]
*282 counter\[8\]
*283 counter\[9\]
*284 counter_sample
*285 net1
*286 net10
*287 net100
*288 net101
*289 net102
*290 net103
*291 net104
*292 net105
*293 net106
*294 net107
*295 net108
*296 net109
*297 net11
*298 net110
*299 net111
*300 net112
*301 net113
*302 net114
*303 net115
*304 net116
*305 net117
*306 net12
*307 net13
*308 net14
*309 net15
*310 net16
*311 net17
*312 net18
*313 net19
*314 net2
*315 net20
*316 net21
*317 net22
*318 net23
*319 net24
*320 net25
*321 net26
*322 net27
*323 net28
*324 net29
*325 net3
*326 net30
*327 net31
*328 net32
*329 net33
*330 net34
*331 net35
*332 net36
*333 net37
*334 net38
*335 net39
*336 net4
*337 net40
*338 net41
*339 net42
*340 net43
*341 net44
*342 net45
*343 net46
*344 net47
*345 net48
*346 net49
*347 net5
*348 net50
*349 net51
*350 net52
*351 net53
*352 net54
*353 net55
*354 net56
*355 net57
*356 net58
*357 net59
*358 net6
*359 net60
*360 net61
*361 net62
*362 net63
*363 net64
*364 net65
*365 net66
*366 net67
*367 net68
*368 net69
*369 net7
*370 net70
*371 net71
*372 net72
*373 net73
*374 net74
*375 net75
*376 net76
*377 net77
*378 net78
*379 net79
*380 net8
*381 net80
*382 net81
*383 net82
*384 net83
*385 net84
*386 net85
*387 net86
*388 net87
*389 net88
*390 net89
*391 net9
*392 net90
*393 net91
*394 net92
*395 net93
*396 net94
*397 net95
*398 net96
*399 net97
*400 net98
*401 net99
*402 result\[0\]
*403 result\[10\]
*404 result\[11\]
*405 result\[1\]
*406 result\[2\]
*407 result\[3\]
*408 result\[4\]
*409 result\[5\]
*410 result\[6\]
*411 result\[7\]
*412 result\[8\]
*413 result\[9\]
*414 single_ended_reg
*415 state\[0\]
*416 state\[1\]
*417 ANTENNA_1
*418 ANTENNA_2
*419 ANTENNA_3
*420 ANTENNA_4
*421 ANTENNA_5
*422 ANTENNA_6
*423 FILLER_0_0_110
*424 FILLER_0_0_113
*425 FILLER_0_0_141
*426 FILLER_0_0_150
*427 FILLER_0_0_166
*428 FILLER_0_0_190
*429 FILLER_0_0_197
*430 FILLER_0_0_257
*431 FILLER_0_0_281
*432 FILLER_0_0_40
*433 FILLER_0_0_45
*434 FILLER_0_0_49
*435 FILLER_0_0_69
*436 FILLER_0_0_80
*437 FILLER_0_1_152
*438 FILLER_0_1_167
*439 FILLER_0_1_169
*440 FILLER_0_1_19
*441 FILLER_0_1_278
*442 FILLER_0_1_42
*443 FILLER_0_1_55
*444 FILLER_0_1_69
*445 FILLER_0_1_81
*446 FILLER_0_2_107
*447 FILLER_0_2_132
*448 FILLER_0_2_138
*449 FILLER_0_2_141
*450 FILLER_0_2_180
*451 FILLER_0_2_194
*452 FILLER_0_2_200
*453 FILLER_0_2_22
*454 FILLER_0_2_225
*455 FILLER_0_2_287
*456 FILLER_0_2_33
*457 FILLER_0_2_73
*458 FILLER_0_2_85
*459 FILLER_0_2_96
*460 FILLER_0_3_113
*461 FILLER_0_3_122
*462 FILLER_0_3_130
*463 FILLER_0_3_199
*464 FILLER_0_3_203
*465 FILLER_0_3_225
*466 FILLER_0_3_23
*467 FILLER_0_3_35
*468 FILLER_0_3_43
*469 FILLER_0_3_51
*470 FILLER_0_3_67
*471 FILLER_0_3_7
*472 FILLER_0_3_89
*473 FILLER_0_3_97
*474 FILLER_0_4_130
*475 FILLER_0_4_135
*476 FILLER_0_4_139
*477 FILLER_0_4_144
*478 FILLER_0_4_152
*479 FILLER_0_4_166
*480 FILLER_0_4_178
*481 FILLER_0_4_186
*482 FILLER_0_4_197
*483 FILLER_0_4_212
*484 FILLER_0_4_229
*485 FILLER_0_4_24
*486 FILLER_0_4_241
*487 FILLER_0_4_251
*488 FILLER_0_4_259
*489 FILLER_0_4_29
*490 FILLER_0_4_48
*491 FILLER_0_4_53
*492 FILLER_0_4_7
*493 FILLER_0_4_76
*494 FILLER_0_4_85
*495 FILLER_0_5_111
*496 FILLER_0_5_129
*497 FILLER_0_5_144
*498 FILLER_0_5_15
*499 FILLER_0_5_153
*500 FILLER_0_5_167
*501 FILLER_0_5_177
*502 FILLER_0_5_181
*503 FILLER_0_5_187
*504 FILLER_0_5_193
*505 FILLER_0_5_201
*506 FILLER_0_5_209
*507 FILLER_0_5_221
*508 FILLER_0_5_245
*509 FILLER_0_5_258
*510 FILLER_0_5_265
*511 FILLER_0_5_281
*512 FILLER_0_5_30
*513 FILLER_0_5_45
*514 FILLER_0_5_49
*515 FILLER_0_5_55
*516 FILLER_0_5_73
*517 FILLER_0_5_94
*518 FILLER_0_6_115
*519 FILLER_0_6_134
*520 FILLER_0_6_151
*521 FILLER_0_6_168
*522 FILLER_0_6_172
*523 FILLER_0_6_179
*524 FILLER_0_6_194
*525 FILLER_0_6_222
*526 FILLER_0_6_231
*527 FILLER_0_6_246
*528 FILLER_0_6_271
*529 FILLER_0_6_33
*530 FILLER_0_6_47
*531 FILLER_0_6_71
*532 FILLER_0_6_78
*533 FILLER_0_7_108
*534 FILLER_0_7_11
*535 FILLER_0_7_123
*536 FILLER_0_7_145
*537 FILLER_0_7_149
*538 FILLER_0_7_156
*539 FILLER_0_7_162
*540 FILLER_0_7_181
*541 FILLER_0_7_203
*542 FILLER_0_7_26
*543 FILLER_0_7_269
*544 FILLER_0_7_275
*545 FILLER_0_7_281
*546 FILLER_0_7_45
*547 FILLER_0_7_57
*548 FILLER_0_7_93
*549 FILLER_0_8_106
*550 FILLER_0_8_156
*551 FILLER_0_8_169
*552 FILLER_0_8_239
*553 FILLER_0_8_250
*554 FILLER_0_8_273
*555 FILLER_0_8_29
*556 FILLER_0_8_74
*557 FILLER_0_8_90
*558 FILLER_0_9_119
*559 FILLER_0_9_194
*560 FILLER_0_9_217
*561 FILLER_0_9_235
*562 FILLER_0_9_240
*563 FILLER_0_9_248
*564 FILLER_0_9_253
*565 FILLER_0_9_258
*566 FILLER_0_9_26
*567 FILLER_0_9_266
*568 FILLER_0_9_275
*569 FILLER_0_9_44
*570 FILLER_0_9_66
*571 FILLER_0_9_83
*572 FILLER_0_9_85
*573 PHY_EDGE_ROW_0_Left_10
*574 PHY_EDGE_ROW_0_Right_0
*575 PHY_EDGE_ROW_1_Left_11
*576 PHY_EDGE_ROW_1_Right_1
*577 PHY_EDGE_ROW_2_Left_12
*578 PHY_EDGE_ROW_2_Right_2
*579 PHY_EDGE_ROW_3_Left_13
*580 PHY_EDGE_ROW_3_Right_3
*581 PHY_EDGE_ROW_4_Left_14
*582 PHY_EDGE_ROW_4_Right_4
*583 PHY_EDGE_ROW_5_Left_15
*584 PHY_EDGE_ROW_5_Right_5
*585 PHY_EDGE_ROW_6_Left_16
*586 PHY_EDGE_ROW_6_Right_6
*587 PHY_EDGE_ROW_7_Left_17
*588 PHY_EDGE_ROW_7_Right_7
*589 PHY_EDGE_ROW_8_Left_18
*590 PHY_EDGE_ROW_8_Right_8
*591 PHY_EDGE_ROW_9_Left_19
*592 PHY_EDGE_ROW_9_Right_9
*593 TAP_TAPCELL_ROW_0_20
*594 TAP_TAPCELL_ROW_0_21
*595 TAP_TAPCELL_ROW_0_22
*596 TAP_TAPCELL_ROW_0_23
*597 TAP_TAPCELL_ROW_0_24
*598 TAP_TAPCELL_ROW_0_25
*599 TAP_TAPCELL_ROW_0_26
*600 TAP_TAPCELL_ROW_0_27
*601 TAP_TAPCELL_ROW_0_28
*602 TAP_TAPCELL_ROW_0_29
*603 TAP_TAPCELL_ROW_1_30
*604 TAP_TAPCELL_ROW_1_31
*605 TAP_TAPCELL_ROW_1_32
*606 TAP_TAPCELL_ROW_1_33
*607 TAP_TAPCELL_ROW_1_34
*608 TAP_TAPCELL_ROW_2_35
*609 TAP_TAPCELL_ROW_2_36
*610 TAP_TAPCELL_ROW_2_37
*611 TAP_TAPCELL_ROW_2_38
*612 TAP_TAPCELL_ROW_2_39
*613 TAP_TAPCELL_ROW_3_40
*614 TAP_TAPCELL_ROW_3_41
*615 TAP_TAPCELL_ROW_3_42
*616 TAP_TAPCELL_ROW_3_43
*617 TAP_TAPCELL_ROW_3_44
*618 TAP_TAPCELL_ROW_4_45
*619 TAP_TAPCELL_ROW_4_46
*620 TAP_TAPCELL_ROW_4_47
*621 TAP_TAPCELL_ROW_4_48
*622 TAP_TAPCELL_ROW_4_49
*623 TAP_TAPCELL_ROW_5_50
*624 TAP_TAPCELL_ROW_5_51
*625 TAP_TAPCELL_ROW_5_52
*626 TAP_TAPCELL_ROW_5_53
*627 TAP_TAPCELL_ROW_5_54
*628 TAP_TAPCELL_ROW_6_55
*629 TAP_TAPCELL_ROW_6_56
*630 TAP_TAPCELL_ROW_6_57
*631 TAP_TAPCELL_ROW_6_58
*632 TAP_TAPCELL_ROW_6_59
*633 TAP_TAPCELL_ROW_7_60
*634 TAP_TAPCELL_ROW_7_61
*635 TAP_TAPCELL_ROW_7_62
*636 TAP_TAPCELL_ROW_7_63
*637 TAP_TAPCELL_ROW_7_64
*638 TAP_TAPCELL_ROW_8_65
*639 TAP_TAPCELL_ROW_8_66
*640 TAP_TAPCELL_ROW_8_67
*641 TAP_TAPCELL_ROW_8_68
*642 TAP_TAPCELL_ROW_8_69
*643 TAP_TAPCELL_ROW_9_70
*644 TAP_TAPCELL_ROW_9_71
*645 TAP_TAPCELL_ROW_9_72
*646 TAP_TAPCELL_ROW_9_73
*647 TAP_TAPCELL_ROW_9_74
*648 TAP_TAPCELL_ROW_9_75
*649 TAP_TAPCELL_ROW_9_76
*650 TAP_TAPCELL_ROW_9_77
*651 TAP_TAPCELL_ROW_9_78
*652 TAP_TAPCELL_ROW_9_79
*653 _175_
*654 _176_
*655 _177_
*656 _178_
*657 _179_
*658 _180_
*659 _181_
*660 _182_
*661 _183_
*662 _184_
*663 _185_
*664 _186_
*665 _187_
*666 _188_
*667 _189_
*668 _190_
*669 _191_
*670 _192_
*671 _193_
*672 _194_
*673 _195_
*674 _196_
*675 _197_
*676 _198_
*677 _199_
*678 _200_
*679 _201_
*680 _202_
*681 _203_
*682 _204_
*683 _205_
*684 _206_
*685 _207_
*686 _208_
*687 _209_
*688 _210_
*689 _211_
*690 _212_
*691 _213_
*692 _214_
*693 _215_
*694 _216_
*695 _217_
*696 _218_
*697 _219_
*698 _220_
*699 _221_
*700 _222_
*701 _223_
*702 _224_
*703 _225_
*704 _226_
*705 _227_
*706 _228_
*707 _229_
*708 _230_
*709 _231_
*710 _232_
*711 _233_
*712 _234_
*713 _235_
*714 _236_
*715 _237_
*716 _238_
*717 _239_
*718 _240_
*719 _241_
*720 _242_
*721 _243_
*722 _244_
*723 _245_
*724 _246_
*725 _247_
*726 _248_
*727 _249_
*728 _250_
*729 _251_
*730 _252_
*731 _253_
*732 _254_
*733 _255_
*734 _256_
*735 _257_
*736 _258_
*737 _259_
*738 _260_
*739 _261_
*740 _262_
*741 _263_
*742 _264_
*743 _265_
*744 _266_
*745 _267_
*746 _268_
*747 _269_
*748 _270_
*749 _271_
*750 _272_
*751 _273_
*752 _274_
*753 _275_
*754 _276_
*755 _277_
*756 _278_
*757 _279_
*758 _280_
*759 _281_
*760 _282_
*761 _283_
*762 _284_
*763 _285_
*764 _286_
*765 _287_
*766 _288_
*767 _289_
*768 _290_
*769 _291_
*770 _292_
*771 _293_
*772 _294_
*773 _295_
*774 _296_
*775 _297_
*776 _298_
*777 _299_
*778 _300_
*779 _301_
*780 _302_
*781 _303_
*782 _304_
*783 _305_
*784 _306_
*785 _307_
*786 _308_
*787 _309_
*788 _310_
*789 _311_
*790 _312_
*791 _313_
*792 _314_
*793 _315_
*794 _316_
*795 _317_
*796 _318_
*797 _319_
*798 _320_
*799 _321_
*800 _322_
*801 _323_
*802 _324_
*803 _325_
*804 _326_
*805 _327_
*806 _328_
*807 _329_
*808 _330_
*809 _331_
*810 _332_
*811 _333_
*812 _334_
*813 _335_
*814 _336_
*815 _337_
*816 _338_
*817 _339_
*818 _340_
*819 _341_
*820 _342_
*821 _343_
*822 _344_
*823 _345_
*824 _346_
*825 _347_
*826 _348_
*827 _349_
*828 _350_
*829 _351_
*830 _352_
*831 _353_
*832 _354_
*833 _355_
*834 _356_
*835 _357_
*836 _358_
*837 _359_
*838 _360_
*839 _361_
*840 _362_
*841 _363_
*842 _364_
*843 _365_
*844 _366_
*845 _367_
*846 _368_
*847 _369_
*848 _370_
*849 _371_
*850 _372_
*851 _373_
*852 _374_
*853 _375_
*854 _376_
*855 _377_
*856 _378_
*857 _379_
*858 _380_
*859 _381_
*860 _382_
*861 _383_
*862 _384_
*863 _385_
*864 _386_
*865 _387_
*866 _388_
*867 _389_
*868 _390_
*869 _391_
*870 _392_
*871 _393_
*872 _394_
*873 _395_
*874 _396_
*875 _397_
*876 _398_
*877 _399_
*878 _400_
*879 _401_
*880 _402_
*881 _403_
*882 _404_
*883 _405_
*884 _406_
*885 _407_
*886 _408_
*887 _409_
*888 _410_
*889 _411_
*890 _412_
*891 _413_
*892 _414_
*893 _415_
*894 _416_
*895 _417_
*896 _418_
*897 _419_
*898 _420_
*899 _421_
*900 _422_
*901 _423_
*902 _424_
*903 _425_
*904 _426_
*905 _427_
*906 _428_
*907 _429_
*908 _430_
*909 _431_
*910 _432_
*911 _433_
*912 _434_
*913 _435_
*914 _436_
*915 _437_
*916 _438_
*917 _439_
*918 _440_
*919 _441_
*920 _442_
*921 _443_
*922 _444_
*923 _445_
*924 _446_
*925 fanout100
*926 fanout101
*927 fanout102
*928 fanout103
*929 fanout104
*930 fanout105
*931 fanout106
*932 fanout107
*933 fanout108
*934 fanout109
*935 fanout110
*936 fanout111
*937 fanout112
*938 fanout113
*939 fanout114
*940 fanout115
*941 fanout116
*942 fanout117
*943 fanout95
*944 fanout96
*945 fanout97
*946 fanout98
*947 fanout99
*948 input1
*949 input10
*950 input11
*951 input12
*952 input13
*953 input14
*954 input15
*955 input16
*956 input17
*957 input18
*958 input19
*959 input2
*960 input20
*961 input21
*962 input22
*963 input23
*964 input24
*965 input25
*966 input3
*967 input4
*968 input5
*969 input6
*970 input7
*971 input8
*972 input9
*973 output26
*974 output27
*975 output28
*976 output29
*977 output30
*978 output31
*979 output32
*980 output33
*981 output34
*982 output35
*983 output36
*984 output37
*985 output38
*986 output39
*987 output40
*988 output41
*989 output42
*990 output43
*991 output44
*992 output45
*993 output46
*994 output47
*995 output48
*996 output49
*997 output50
*998 output51
*999 output52
*1000 output53
*1001 output54
*1002 output55
*1003 output56
*1004 output57
*1005 output58
*1006 output59
*1007 output60
*1008 output61
*1009 output62
*1010 output63
*1011 output64
*1012 output65
*1013 output66
*1014 output67
*1015 output68
*1016 output69
*1017 output70
*1018 output71
*1019 output72
*1020 output73
*1021 output74
*1022 output75
*1023 output76
*1024 output77
*1025 output78
*1026 output79
*1027 output80
*1028 output81
*1029 output82
*1030 output83
*1031 output84
*1032 output85
*1033 output86
*1034 output87
*1035 output88
*1036 output89
*1037 output90
*1038 output91
*1039 output92
*1040 output93
*1041 output94

*PORTS
clk I
clk_data O
comp_n I
comp_p I
data[0] O
data[1] O
data[2] O
data[3] O
data[4] O
data[5] O
debug_mux[0] I
debug_mux[1] I
debug_mux[2] I
debug_mux[3] I
debug_out O
en_comp O
en_offset_cal I
en_offset_cal_o O
en_vcm_sw_o O
en_vcm_sw_o_i I
offset_cal_cycle O
rst_z I
sample_o O
single_ended I
start I
vcm_dummy_o O
vcm_o[0] O
vcm_o[10] O
vcm_o[1] O
vcm_o[2] O
vcm_o[3] O
vcm_o[4] O
vcm_o[5] O
vcm_o[6] O
vcm_o[7] O
vcm_o[8] O
vcm_o[9] O
vcm_o_i[0] I
vcm_o_i[10] I
vcm_o_i[1] I
vcm_o_i[2] I
vcm_o_i[3] I
vcm_o_i[4] I
vcm_o_i[5] I
vcm_o_i[6] I
vcm_o_i[7] I
vcm_o_i[8] I
vcm_o_i[9] I
vin_n_sw_on I
vin_p_sw_on I
vref_z_n_o[0] O
vref_z_n_o[10] O
vref_z_n_o[1] O
vref_z_n_o[2] O
vref_z_n_o[3] O
vref_z_n_o[4] O
vref_z_n_o[5] O
vref_z_n_o[6] O
vref_z_n_o[7] O
vref_z_n_o[8] O
vref_z_n_o[9] O
vref_z_p_o[0] O
vref_z_p_o[10] O
vref_z_p_o[1] O
vref_z_p_o[2] O
vref_z_p_o[3] O
vref_z_p_o[4] O
vref_z_p_o[5] O
vref_z_p_o[6] O
vref_z_p_o[7] O
vref_z_p_o[8] O
vref_z_p_o[9] O
vss_n_o[0] O
vss_n_o[10] O
vss_n_o[1] O
vss_n_o[2] O
vss_n_o[3] O
vss_n_o[4] O
vss_n_o[5] O
vss_n_o[6] O
vss_n_o[7] O
vss_n_o[8] O
vss_n_o[9] O
vss_p_o[0] O
vss_p_o[10] O
vss_p_o[1] O
vss_p_o[2] O
vss_p_o[3] O
vss_p_o[4] O
vss_p_o[5] O
vss_p_o[6] O
vss_p_o[7] O
vss_p_o[8] O
vss_p_o[9] O

*D_NET *3 0.00212898
*CONN
*P clk I
*I *948:A I *D sky130_fd_sc_hd__buf_1
*CAP
1 clk 0.000649438
2 *948:A 0.000649438
3 *948:A *295:39 0.000129296
4 *948:A *305:16 0.000321957
5 *948:A *305:85 4.21973e-05
6 *948:A *319:26 0
7 *948:A *360:49 0.00033665
*RES
1 clk *948:A 16.89 
*END

*D_NET *4 0.00115864
*CONN
*P clk_data O
*I *973:X O *D sky130_fd_sc_hd__clkbuf_4
*CAP
1 clk_data 0.000518823
2 *973:X 0.000518823
3 clk_data vref_z_p_o[10] 0.000120999
4 clk_data *1019:A 0
*RES
1 *973:X clk_data 12.99 
*END

*D_NET *5 0.00191813
*CONN
*P comp_n I
*I *959:A I *D sky130_fd_sc_hd__buf_1
*CAP
1 comp_n 0.000539914
2 *959:A 0.000539914
3 *959:A vcm_o[0] 0
4 *959:A vss_p_o[0] 0.000369852
5 *959:A *767:A1 9.044e-05
6 *959:A *966:A 0
7 *959:A *1033:A 8.40213e-05
8 *959:A *1034:A 0.000194624
9 *959:A *185:24 0
10 *959:A *314:12 2.49909e-05
11 *959:A *355:20 7.43778e-05
*RES
1 comp_n *959:A 15.885 
*END

*D_NET *6 0.00109337
*CONN
*P comp_p I
*I *966:A I *D sky130_fd_sc_hd__clkbuf_2
*CAP
1 comp_p 0.000473839
2 *966:A 0.000473839
3 *966:A en_comp 0
4 *966:A *767:A1 0
5 *966:A *314:12 0.000137571
6 *966:A *330:28 8.12462e-06
7 *959:A *966:A 0
*RES
1 comp_p *966:A 11.97 
*END

*D_NET *7 0.00125154
*CONN
*P data[0] O
*I *974:X O *D sky130_fd_sc_hd__clkbuf_4
*CAP
1 data[0] 0.000545643
2 *974:X 0.000545643
3 data[0] *973:A 7.3664e-05
4 data[0] *974:A 8.65905e-05
5 data[0] *1010:A 0
6 data[0] *1019:A 0
*RES
1 *974:X data[0] 13.08 
*END

*D_NET *8 0.00124928
*CONN
*P data[1] O
*I *975:X O *D sky130_fd_sc_hd__clkbuf_4
*CAP
1 data[1] 0.000572983
2 *975:X 0.000572983
3 data[1] *929:A 1.55649e-05
4 data[1] *975:A 8.77516e-05
*RES
1 *975:X data[1] 13.08 
*END

*D_NET *9 0.0011669
*CONN
*P data[2] O
*I *976:X O *D sky130_fd_sc_hd__clkbuf_4
*CAP
1 data[2] 0.000491726
2 *976:X 0.000491726
3 data[2] *683:A 2.75229e-05
4 data[2] *349:19 0.000155928
5 data[2] *351:41 0
*RES
1 *976:X data[2] 12.39 
*END

*D_NET *10 0.00151949
*CONN
*P data[3] O
*I *977:X O *D sky130_fd_sc_hd__clkbuf_4
*CAP
1 data[3] 0.000651057
2 *977:X 0.000651057
3 data[3] *684:A1 4.9253e-06
4 data[3] *298:16 0.000203178
5 data[3] *298:20 9.27255e-06
*RES
1 *977:X data[3] 14.115 
*END

*D_NET *11 0.00102453
*CONN
*P data[4] O
*I *978:X O *D sky130_fd_sc_hd__clkbuf_4
*CAP
1 data[4] 0.000512263
2 *978:X 0.000512263
3 data[4] *686:S 0
4 data[4] *1019:A 0
*RES
1 *978:X data[4] 12.195 
*END

*D_NET *12 0.00164416
*CONN
*P data[5] O
*I *979:X O *D sky130_fd_sc_hd__clkbuf_4
*CAP
1 data[5] 0.00070404
2 *979:X 0.00070404
3 data[5] *687:A 7.40301e-05
4 data[5] *860:B1 7.08658e-05
5 data[5] *979:A 3.98602e-05
6 data[5] *303:20 5.13231e-05
*RES
1 *979:X data[5] 16.935 
*END

*D_NET *13 0.00119668
*CONN
*P debug_mux[0] I
*I *967:A I *D sky130_fd_sc_hd__clkbuf_2
*CAP
1 debug_mux[0] 0.000551987
2 *967:A 0.000551987
3 *967:A *818:A 4.43871e-06
4 *967:A *822:A1 0
5 *967:A *226:37 0
6 *967:A *369:18 8.8266e-05
*RES
1 debug_mux[0] *967:A 12.99 
*END

*D_NET *14 0.00127882
*CONN
*P debug_mux[1] I
*I *968:A I *D sky130_fd_sc_hd__clkbuf_2
*CAP
1 debug_mux[1] 0.00053865
2 *968:A 0.00053865
3 *968:A *347:14 4.99619e-05
4 *968:A *358:10 2.66586e-05
5 *968:A *369:18 0.0001249
*RES
1 debug_mux[1] *968:A 13.335 
*END

*D_NET *15 0.00136429
*CONN
*P debug_mux[2] I
*I *969:A I *D sky130_fd_sc_hd__buf_1
*CAP
1 debug_mux[2] 0.000529016
2 *969:A 0.000529016
3 *969:A *970:A 7.62408e-05
4 *969:A *226:37 3.67779e-05
5 *969:A *319:26 0.00019324
*RES
1 debug_mux[2] *969:A 13.8 
*END

*D_NET *16 0.00213533
*CONN
*P debug_mux[3] I
*I *970:A I *D sky130_fd_sc_hd__buf_1
*CAP
1 debug_mux[3] 0.000925823
2 *970:A 0.000925823
3 *970:A vref_z_n_o[10] 2.09442e-05
4 *970:A *999:A 0
5 *970:A *319:26 0.000158981
6 *970:A *358:10 2.75145e-05
7 *969:A *970:A 7.62408e-05
*RES
1 debug_mux[3] *970:A 19.695 
*END

*D_NET *17 0.00175419
*CONN
*P debug_out O
*I *980:X O *D sky130_fd_sc_hd__clkbuf_4
*CAP
1 debug_out 0.000794317
2 *980:X 0.000794317
3 debug_out *829:A 3.15039e-05
4 debug_out *936:A 7.00225e-05
5 debug_out *155:85 4.56809e-05
6 debug_out *155:102 7.59573e-06
7 debug_out *233:82 1.07563e-05
8 debug_out *350:33 0
9 debug_out *362:10 0
*RES
1 *980:X debug_out 16.83 
*END

*D_NET *18 0.00119943
*CONN
*P en_comp O
*I *981:X O *D sky130_fd_sc_hd__buf_2
*CAP
1 en_comp 0.000555078
2 *981:X 0.000555078
3 en_comp sample_o 0
4 en_comp vss_p_o[0] 8.31173e-05
5 en_comp vss_p_o[1] 6.16226e-06
6 en_comp *314:12 0
7 en_comp *330:28 0
8 *966:A en_comp 0
*RES
1 *981:X en_comp 12.75 
*END

*D_NET *19 0.00118623
*CONN
*P en_offset_cal I
*I *971:A I *D sky130_fd_sc_hd__buf_1
*CAP
1 en_offset_cal 0.000532461
2 *971:A 0.000532461
3 *971:A *818:A 0
4 *971:A *818:B 0
5 *971:A *822:A1 3.86529e-05
6 *971:A *880:S 4.99619e-05
7 *971:A *950:A 3.26889e-05
*RES
1 en_offset_cal *971:A 13.005 
*END

*D_NET *20 0.0012488
*CONN
*P en_offset_cal_o O
*I *982:X O *D sky130_fd_sc_hd__clkbuf_4
*CAP
1 en_offset_cal_o 0.0006244
2 *982:X 0.0006244
3 en_offset_cal_o offset_cal_cycle 0
*RES
1 *982:X en_offset_cal_o 14.04 
*END

*D_NET *21 0.00178983
*CONN
*P en_vcm_sw_o O
*I *983:X O *D sky130_fd_sc_hd__buf_2
*CAP
1 en_vcm_sw_o 0.000639511
2 *983:X 0.000639511
3 en_vcm_sw_o vcm_dummy_o 0
4 en_vcm_sw_o *830:A1 3.24046e-05
5 en_vcm_sw_o *830:A2 0.000242428
6 en_vcm_sw_o *972:A 0
7 en_vcm_sw_o *375:24 0.000235979
*RES
1 *983:X en_vcm_sw_o 15.15 
*END

*D_NET *22 0.00304056
*CONN
*P en_vcm_sw_o_i I
*I *972:A I *D sky130_fd_sc_hd__clkbuf_1
*CAP
1 en_vcm_sw_o_i 0.000997553
2 *972:A 0.000997553
3 *972:A offset_cal_cycle 7.47239e-05
4 *972:A vss_n_o[6] 0.0001035
5 *972:A *834:A1 4.06417e-05
6 *972:A *953:A 0
7 *972:A *983:A 0.000245592
8 *972:A *1027:A 0.000126231
9 *972:A *282:16 3.03775e-05
10 *972:A *308:16 5.24879e-05
11 *972:A *354:26 3.48563e-05
12 *972:A *376:22 0.000337041
13 en_vcm_sw_o *972:A 0
*RES
1 en_vcm_sw_o_i *972:A 25.57 
*END

*D_NET *23 0.00324369
*CONN
*P offset_cal_cycle O
*I *984:X O *D sky130_fd_sc_hd__buf_2
*CAP
1 offset_cal_cycle 0.00130842
2 *984:X 0.00130842
3 offset_cal_cycle vref_z_n_o[0] 6.24871e-05
4 offset_cal_cycle vss_n_o[3] 9.58678e-06
5 offset_cal_cycle vss_n_o[6] 5.41014e-05
6 offset_cal_cycle vss_n_o[8] 7.25382e-05
7 offset_cal_cycle vss_n_o[9] 6.16226e-06
8 offset_cal_cycle *677:A 0.000127172
9 offset_cal_cycle *830:A2 0.000112797
10 offset_cal_cycle *953:A 0
11 offset_cal_cycle *998:A 0
12 offset_cal_cycle *1000:A 0.000107277
13 offset_cal_cycle *1022:A 0
14 offset_cal_cycle *1024:A 0
15 offset_cal_cycle *354:26 0
16 en_offset_cal_o offset_cal_cycle 0
17 *972:A offset_cal_cycle 7.47239e-05
*RES
1 *984:X offset_cal_cycle 25.98 
*END

*D_NET *24 0.00189622
*CONN
*P rst_z I
*I *949:A I *D sky130_fd_sc_hd__buf_1
*CAP
1 rst_z 0.000865901
2 *949:A 0.000865901
3 *949:A *754:B1 6.45064e-05
4 *949:A *905:RESET_B 6.72143e-05
5 *949:A *918:CLK 0
6 *949:A *918:D 3.26984e-05
7 *949:A *286:40 0
8 *949:A *300:10 0
9 *949:A *360:49 0
*RES
1 rst_z *949:A 17.085 
*END

*D_NET *25 0.00127856
*CONN
*P sample_o O
*I *985:X O *D sky130_fd_sc_hd__clkbuf_4
*CAP
1 sample_o 0.000615938
2 *985:X 0.000615938
3 sample_o vss_p_o[0] 4.66826e-05
4 sample_o vss_p_o[6] 0
5 en_comp sample_o 0
*RES
1 *985:X sample_o 14.04 
*END

*D_NET *26 0.00255796
*CONN
*P single_ended I
*I *950:A I *D sky130_fd_sc_hd__clkbuf_1
*CAP
1 single_ended 0.000686973
2 *950:A 0.000686973
3 *950:A *880:A1 0.000471307
4 *950:A *880:S 7.99009e-05
5 *950:A *920:RESET_B 5.13595e-05
6 *950:A *933:A 8.65905e-05
7 *950:A *1025:A 0.000104628
8 *950:A *293:6 1.47256e-05
9 *950:A *293:20 1.47347e-05
10 *950:A *295:6 8.8266e-05
11 *950:A *295:14 0.000239813
12 *971:A *950:A 3.26889e-05
*RES
1 single_ended *950:A 18.63 
*END

*D_NET *27 0.00207861
*CONN
*P start I
*I *951:A I *D sky130_fd_sc_hd__clkbuf_1
*CAP
1 start 0.000672875
2 *951:A 0.000672875
3 *951:A *750:B1 3.00381e-05
4 *951:A *822:A1 1.95265e-05
5 *951:A *845:B 8.7152e-06
6 *951:A *302:18 0.000166441
7 *951:A *302:20 0.000212554
8 *951:A *302:26 0.000119773
9 *951:A *305:85 0.00012752
10 *951:A *319:26 0
11 *951:A *325:130 4.82919e-05
*RES
1 start *951:A 16.98 
*END

*D_NET *28 0.00238423
*CONN
*P vcm_dummy_o O
*I *986:X O *D sky130_fd_sc_hd__buf_2
*CAP
1 vcm_dummy_o 0.000885472
2 *986:X 0.000885472
3 vcm_dummy_o *830:A1 0
4 vcm_dummy_o *830:C1 8.03643e-05
5 vcm_dummy_o *867:A2 0.000171326
6 vcm_dummy_o *910:D 8.45512e-05
7 vcm_dummy_o *913:D 1.88727e-05
8 vcm_dummy_o *916:CLK 8.23457e-05
9 vcm_dummy_o *916:D 8.73389e-06
10 vcm_dummy_o *953:A 0
11 vcm_dummy_o *304:89 0.000114615
12 vcm_dummy_o *304:100 5.24801e-05
13 en_vcm_sw_o vcm_dummy_o 0
*RES
1 *986:X vcm_dummy_o 18.735 
*END

*D_NET *29 0.00102682
*CONN
*P vcm_o[0] O
*I *987:X O *D sky130_fd_sc_hd__buf_2
*CAP
1 vcm_o[0] 0.000478829
2 *987:X 0.000478829
3 vcm_o[0] *731:A 6.9167e-05
4 vcm_o[0] *952:A 0
5 vcm_o[0] *185:24 0
6 *959:A vcm_o[0] 0
*RES
1 *987:X vcm_o[0] 11.715 
*END

*D_NET *30 0.00194506
*CONN
*P vcm_o[10] O
*I *988:X O *D sky130_fd_sc_hd__buf_2
*CAP
1 vcm_o[10] 0.000786114
2 *988:X 0.000786114
3 vcm_o[10] *909:CLK 4.60584e-05
4 vcm_o[10] *909:D 3.001e-05
5 vcm_o[10] *909:RESET_B 0.000229242
6 vcm_o[10] *953:A 0
7 vcm_o[10] *963:A 0
8 vcm_o[10] *997:A 6.68173e-06
9 vcm_o[10] *289:30 0
10 vcm_o[10] *304:89 1.16578e-05
11 vcm_o[10] *373:22 4.91834e-05
*RES
1 *988:X vcm_o[10] 15.72 
*END

*D_NET *31 0.00134721
*CONN
*P vcm_o[1] O
*I *989:X O *D sky130_fd_sc_hd__buf_2
*CAP
1 vcm_o[1] 0.000500284
2 *989:X 0.000500284
3 vcm_o[1] *672:A 0.000124007
4 vcm_o[1] *952:A 0
5 vcm_o[1] *954:A 0.000183979
6 vcm_o[1] *406:18 3.86607e-05
*RES
1 *989:X vcm_o[1] 12.51 
*END

*D_NET *32 0.00115663
*CONN
*P vcm_o[2] O
*I *990:X O *D sky130_fd_sc_hd__buf_2
*CAP
1 vcm_o[2] 0.00051122
2 *990:X 0.00051122
3 vcm_o[2] *787:B 3.68769e-05
4 vcm_o[2] *954:A 0
5 vcm_o[2] *955:A 0
6 vcm_o[2] *990:A 4.66108e-05
7 vcm_o[2] *373:22 3.18137e-05
8 vcm_o[2] *375:24 0
9 vcm_o[2] *376:22 1.88904e-05
*RES
1 *990:X vcm_o[2] 12.06 
*END

*D_NET *33 0.0018099
*CONN
*P vcm_o[3] O
*I *991:X O *D sky130_fd_sc_hd__buf_2
*CAP
1 vcm_o[3] 0.000749102
2 *991:X 0.000749102
3 vcm_o[3] *919:CLK 5.83121e-06
4 vcm_o[3] *955:A 0
5 vcm_o[3] *956:A 0
6 vcm_o[3] *991:A 0.000122337
7 vcm_o[3] *279:61 5.30673e-05
8 vcm_o[3] *408:12 0.000130463
*RES
1 *991:X vcm_o[3] 16.635 
*END

*D_NET *34 0.000904993
*CONN
*P vcm_o[4] O
*I *992:X O *D sky130_fd_sc_hd__buf_2
*CAP
1 vcm_o[4] 0.000452496
2 *992:X 0.000452496
3 vcm_o[4] *784:A 0
4 vcm_o[4] *956:A 0
5 vcm_o[4] *957:A 0
6 vcm_o[4] *203:12 0
*RES
1 *992:X vcm_o[4] 10.92 
*END

*D_NET *35 0.00131864
*CONN
*P vcm_o[5] O
*I *993:X O *D sky130_fd_sc_hd__buf_2
*CAP
1 vcm_o[5] 0.000492975
2 *993:X 0.000492975
3 vcm_o[5] *957:A 0
4 vcm_o[5] *958:A 0
5 vcm_o[5] *185:18 0.000210359
6 vcm_o[5] *203:59 1.08758e-05
7 vcm_o[5] *203:70 0.000111455
8 vcm_o[5] *308:24 0
9 vcm_o[5] *354:26 0
*RES
1 *993:X vcm_o[5] 12.06 
*END

*D_NET *36 0.00156617
*CONN
*P vcm_o[6] O
*I *994:X O *D sky130_fd_sc_hd__buf_2
*CAP
1 vcm_o[6] 0.000682607
2 *994:X 0.000682607
3 vcm_o[6] *791:A 1.39395e-05
4 vcm_o[6] *858:B1 4.99619e-05
5 vcm_o[6] *925:A 2.75229e-05
6 vcm_o[6] *958:A 1.16578e-05
7 vcm_o[6] *960:A 0
8 vcm_o[6] *994:A 5.83497e-05
9 vcm_o[6] *203:95 3.02513e-05
10 vcm_o[6] *289:40 0
11 vcm_o[6] *289:48 0
12 vcm_o[6] *401:69 9.27255e-06
*RES
1 *994:X vcm_o[6] 14.235 
*END

*D_NET *37 0.00142978
*CONN
*P vcm_o[7] O
*I *995:X O *D sky130_fd_sc_hd__buf_2
*CAP
1 vcm_o[7] 0.000612009
2 *995:X 0.000612009
3 vcm_o[7] *858:B2 3.96937e-06
4 vcm_o[7] *960:A 0
5 vcm_o[7] *961:A 0
6 vcm_o[7] *296:24 0.000201795
7 vcm_o[7] *401:40 0
*RES
1 *995:X vcm_o[7] 13.2 
*END

*D_NET *38 0.00190463
*CONN
*P vcm_o[8] O
*I *996:X O *D sky130_fd_sc_hd__buf_2
*CAP
1 vcm_o[8] 0.00074984
2 *996:X 0.00074984
3 vcm_o[8] *713:A 0
4 vcm_o[8] *824:A 0.000193801
5 vcm_o[8] *903:CLK 0
6 vcm_o[8] *961:A 0
7 vcm_o[8] *962:A 0
8 vcm_o[8] *996:A 7.94923e-05
9 vcm_o[8] *280:22 0.000131658
*RES
1 *996:X vcm_o[8] 15.48 
*END

*D_NET *39 0.00193375
*CONN
*P vcm_o[9] O
*I *997:X O *D sky130_fd_sc_hd__buf_2
*CAP
1 vcm_o[9] 0.000515972
2 *997:X 0.000515972
3 vcm_o[9] *808:A1 5.02892e-05
4 vcm_o[9] *824:A 0.000201503
5 vcm_o[9] *962:A 3.23663e-05
6 vcm_o[9] *963:A 0
7 vcm_o[9] *997:A 0.000234674
8 vcm_o[9] *281:14 0.00010978
9 vcm_o[9] *289:40 0
10 vcm_o[9] *296:142 5.07376e-05
11 vcm_o[9] *330:20 1.23015e-05
12 vcm_o[9] *401:28 6.27395e-05
13 vcm_o[9] *401:34 0.000147415
*RES
1 *997:X vcm_o[9] 14.805 
*END

*D_NET *40 0.00104156
*CONN
*P vcm_o_i[0] I
*I *952:A I *D sky130_fd_sc_hd__clkbuf_1
*CAP
1 vcm_o_i[0] 0.000512276
2 *952:A 0.000512276
3 *952:A *696:B 1.70031e-05
4 *952:A *954:A 0
5 *952:A *203:22 0
6 vcm_o[0] *952:A 0
7 vcm_o[1] *952:A 0
*RES
1 vcm_o_i[0] *952:A 11.88 
*END

*D_NET *41 0.00258911
*CONN
*P vcm_o_i[10] I
*I *953:A I *D sky130_fd_sc_hd__buf_1
*CAP
1 vcm_o_i[10] 0.00114627
2 *953:A 0.00114627
3 *953:A *308:16 6.06689e-05
4 *953:A *354:26 0.000235895
5 offset_cal_cycle *953:A 0
6 vcm_dummy_o *953:A 0
7 vcm_o[10] *953:A 0
8 *972:A *953:A 0
*RES
1 vcm_o_i[10] *953:A 27.37 
*END

*D_NET *42 0.00158024
*CONN
*P vcm_o_i[1] I
*I *954:A I *D sky130_fd_sc_hd__clkbuf_1
*CAP
1 vcm_o_i[1] 0.000652223
2 *954:A 0.000652223
3 *954:A *696:B 0
4 *954:A *185:22 5.79012e-05
5 *954:A *203:22 3.39151e-05
6 *954:A *406:18 0
7 vcm_o[1] *954:A 0.000183979
8 vcm_o[2] *954:A 0
9 *952:A *954:A 0
*RES
1 vcm_o_i[1] *954:A 19.78 
*END

*D_NET *43 0.00106624
*CONN
*P vcm_o_i[2] I
*I *955:A I *D sky130_fd_sc_hd__clkbuf_1
*CAP
1 vcm_o_i[2] 0.000533122
2 *955:A 0.000533122
3 *955:A *373:22 0
4 vcm_o[2] *955:A 0
5 vcm_o[3] *955:A 0
*RES