* NGSPICE file created from SAR_ADC_12bit.ext - technology: sky130A

.subckt sky130_fd_pr__nfet_01v8_F5PS5H a_n221_n200# a_n129_n200# a_63_n200# a_111_222#
+ a_n33_n200# a_15_n288# a_n81_222# a_n177_n288# a_159_n200# a_n323_n374#
X0 a_n33_n200# a_n81_222# a_n129_n200# a_n323_n374# sky130_fd_pr__nfet_01v8 ad=0.33 pd=2.33 as=0.33 ps=2.33 w=2 l=0.15
X1 a_159_n200# a_111_222# a_63_n200# a_n323_n374# sky130_fd_pr__nfet_01v8 ad=0.62 pd=4.62 as=0.33 ps=2.33 w=2 l=0.15
X2 a_63_n200# a_15_n288# a_n33_n200# a_n323_n374# sky130_fd_pr__nfet_01v8 ad=0.33 pd=2.33 as=0.33 ps=2.33 w=2 l=0.15
X3 a_n129_n200# a_n177_n288# a_n221_n200# a_n323_n374# sky130_fd_pr__nfet_01v8 ad=0.33 pd=2.33 as=0.62 ps=4.62 w=2 l=0.15
.ends

.subckt sky130_fd_sc_hd__inv_1 A VGND VNB VPB VPWR Y
X0 Y A VGND VNB sky130_fd_pr__nfet_01v8 ad=0.169 pd=1.82 as=0.169 ps=1.82 w=0.65 l=0.15
X1 Y A VPWR VPB sky130_fd_pr__pfet_01v8_hvt ad=0.26 pd=2.52 as=0.26 ps=2.52 w=1 l=0.15
.ends

.subckt sky130_fd_pr__pfet_01v8_hvt_U47ZGH a_n221_n200# a_n129_n200# a_63_n200# a_15_n297#
+ a_n81_231# w_n359_n419# a_n177_n297# a_n33_n200# a_159_n200# a_111_231#
X0 a_n33_n200# a_n81_231# a_n129_n200# w_n359_n419# sky130_fd_pr__pfet_01v8_hvt ad=0.33 pd=2.33 as=0.33 ps=2.33 w=2 l=0.15
X1 a_159_n200# a_111_231# a_63_n200# w_n359_n419# sky130_fd_pr__pfet_01v8_hvt ad=0.62 pd=4.62 as=0.33 ps=2.33 w=2 l=0.15
X2 a_63_n200# a_15_n297# a_n33_n200# w_n359_n419# sky130_fd_pr__pfet_01v8_hvt ad=0.33 pd=2.33 as=0.33 ps=2.33 w=2 l=0.15
X3 a_n129_n200# a_n177_n297# a_n221_n200# w_n359_n419# sky130_fd_pr__pfet_01v8_hvt ad=0.33 pd=2.33 as=0.62 ps=4.62 w=2 l=0.15
.ends

.subckt sky130_fd_pr__pfet_01v8_lvt_6VC8VM w_n425_n284# a_229_n64# a_29_n161# a_n29_n64#
+ a_n287_n64# a_n229_n161#
X0 a_n29_n64# a_n229_n161# a_n287_n64# w_n425_n284# sky130_fd_pr__pfet_01v8_lvt ad=0.145 pd=1.29 as=0.29 ps=2.58 w=1 l=1
X1 a_229_n64# a_29_n161# a_n29_n64# w_n425_n284# sky130_fd_pr__pfet_01v8_lvt ad=0.29 pd=2.58 as=0.145 ps=1.29 w=1 l=1
.ends

.subckt sky130_fd_pr__nfet_01v8_VGBCTM a_15_n800# a_n175_n974# a_n73_n800# a_n33_n888#
X0 a_15_n800# a_n33_n888# a_n73_n800# a_n175_n974# sky130_fd_pr__nfet_01v8 ad=2.32 pd=16.58 as=2.32 ps=16.58 w=8 l=0.15
.ends

.subckt sky130_fd_pr__pfet_01v8_XPKDX6 a_114_21# a_n180_1349# a_n376_n1415# a_n225_118#
+ a_n225_n1318# a_69_118# a_363_n1318# a_114_n87# a_167_118# a_n278_n87# a_n323_118#
+ a_212_n1415# a_n421_n1318# a_265_118# a_16_1349# a_n127_n1318# a_265_n1318# a_n421_118#
+ a_310_n87# a_363_118# a_n29_n1318# a_n82_21# a_16_n1415# a_212_1349# a_n323_n1318#
+ a_n180_n1415# a_n29_118# a_167_n1318# a_310_21# a_n127_118# a_69_n1318# a_n376_1349#
+ a_n82_n87# w_n559_n1537# a_n278_21#
X0 a_n323_n1318# a_n376_n1415# a_n421_n1318# w_n559_n1537# sky130_fd_pr__pfet_01v8 ad=0.87 pd=6.29 as=1.74 ps=12.58 w=6 l=0.2
X1 a_n127_n1318# a_n180_n1415# a_n225_n1318# w_n559_n1537# sky130_fd_pr__pfet_01v8 ad=0.87 pd=6.29 as=0.87 ps=6.29 w=6 l=0.2
X2 a_n127_118# a_n180_1349# a_n225_118# w_n559_n1537# sky130_fd_pr__pfet_01v8 ad=0.87 pd=6.29 as=0.87 ps=6.29 w=6 l=0.2
X3 a_265_n1318# a_212_n1415# a_167_n1318# w_n559_n1537# sky130_fd_pr__pfet_01v8 ad=0.87 pd=6.29 as=0.87 ps=6.29 w=6 l=0.2
X4 a_69_118# a_16_1349# a_n29_118# w_n559_n1537# sky130_fd_pr__pfet_01v8 ad=0.87 pd=6.29 as=0.87 ps=6.29 w=6 l=0.2
X5 a_167_118# a_114_21# a_69_118# w_n559_n1537# sky130_fd_pr__pfet_01v8 ad=0.87 pd=6.29 as=0.87 ps=6.29 w=6 l=0.2
X6 a_n225_118# a_n278_21# a_n323_118# w_n559_n1537# sky130_fd_pr__pfet_01v8 ad=0.87 pd=6.29 as=0.87 ps=6.29 w=6 l=0.2
X7 a_n225_n1318# a_n278_n87# a_n323_n1318# w_n559_n1537# sky130_fd_pr__pfet_01v8 ad=0.87 pd=6.29 as=0.87 ps=6.29 w=6 l=0.2
X8 a_69_n1318# a_16_n1415# a_n29_n1318# w_n559_n1537# sky130_fd_pr__pfet_01v8 ad=0.87 pd=6.29 as=0.87 ps=6.29 w=6 l=0.2
X9 a_n29_118# a_n82_21# a_n127_118# w_n559_n1537# sky130_fd_pr__pfet_01v8 ad=0.87 pd=6.29 as=0.87 ps=6.29 w=6 l=0.2
X10 a_265_118# a_212_1349# a_167_118# w_n559_n1537# sky130_fd_pr__pfet_01v8 ad=0.87 pd=6.29 as=0.87 ps=6.29 w=6 l=0.2
X11 a_167_n1318# a_114_n87# a_69_n1318# w_n559_n1537# sky130_fd_pr__pfet_01v8 ad=0.87 pd=6.29 as=0.87 ps=6.29 w=6 l=0.2
X12 a_363_n1318# a_310_n87# a_265_n1318# w_n559_n1537# sky130_fd_pr__pfet_01v8 ad=1.74 pd=12.58 as=0.87 ps=6.29 w=6 l=0.2
X13 a_n323_118# a_n376_1349# a_n421_118# w_n559_n1537# sky130_fd_pr__pfet_01v8 ad=0.87 pd=6.29 as=1.74 ps=12.58 w=6 l=0.2
X14 a_n29_n1318# a_n82_n87# a_n127_n1318# w_n559_n1537# sky130_fd_pr__pfet_01v8 ad=0.87 pd=6.29 as=0.87 ps=6.29 w=6 l=0.2
X15 a_363_118# a_310_21# a_265_118# w_n559_n1537# sky130_fd_pr__pfet_01v8 ad=1.74 pd=12.58 as=0.87 ps=6.29 w=6 l=0.2
.ends

.subckt sky130_fd_pr__nfet_01v8_64Z3AY a_15_n131# a_n175_n243# a_n33_91# a_n73_n131#
X0 a_15_n131# a_n33_91# a_n73_n131# a_n175_n243# sky130_fd_pr__nfet_01v8 ad=0.29 pd=2.58 as=0.29 ps=2.58 w=1 l=0.15
.ends

.subckt sky130_fd_pr__nfet_03v3_nvt_Y5TA2C a_129_n19# a_n29_n19# a_n187_n19# a_n321_n241#
+ a_29_n107# a_n129_n107#
X0 a_129_n19# a_29_n107# a_n29_n19# a_n321_n241# sky130_fd_pr__nfet_03v3_nvt ad=0.145 pd=1.58 as=0.0725 ps=0.79 w=0.5 l=0.5
X1 a_n29_n19# a_n129_n107# a_n187_n19# a_n321_n241# sky130_fd_pr__nfet_03v3_nvt ad=0.0725 pd=0.79 as=0.145 ps=1.58 w=0.5 l=0.5
.ends

.subckt sky130_fd_pr__res_high_po_0p35_699HP9 a_n865_1784# a_463_n2216# a_463_1784#
+ a_n699_1784# a_297_1784# a_n533_n2216# a_n35_n2216# a_795_n2216# a_795_1784# a_n201_1784#
+ a_297_n2216# a_629_1784# a_n35_1784# a_n865_n2216# a_629_n2216# a_n367_n2216# a_n533_1784#
+ a_131_n2216# a_131_1784# a_n367_1784# a_n995_n2346# a_n201_n2216# a_n699_n2216#
X0 a_n35_1784# a_n35_n2216# a_n995_n2346# sky130_fd_pr__res_high_po_0p35 l=18
X1 a_n367_1784# a_n367_n2216# a_n995_n2346# sky130_fd_pr__res_high_po_0p35 l=18
X2 a_297_1784# a_297_n2216# a_n995_n2346# sky130_fd_pr__res_high_po_0p35 l=18
X3 a_n865_1784# a_n865_n2216# a_n995_n2346# sky130_fd_pr__res_high_po_0p35 l=18
X4 a_795_1784# a_795_n2216# a_n995_n2346# sky130_fd_pr__res_high_po_0p35 l=18
X5 a_n201_1784# a_n201_n2216# a_n995_n2346# sky130_fd_pr__res_high_po_0p35 l=18
X6 a_n699_1784# a_n699_n2216# a_n995_n2346# sky130_fd_pr__res_high_po_0p35 l=18
X7 a_131_1784# a_131_n2216# a_n995_n2346# sky130_fd_pr__res_high_po_0p35 l=18
X8 a_n533_1784# a_n533_n2216# a_n995_n2346# sky130_fd_pr__res_high_po_0p35 l=18
X9 a_463_1784# a_463_n2216# a_n995_n2346# sky130_fd_pr__res_high_po_0p35 l=18
X10 a_629_1784# a_629_n2216# a_n995_n2346# sky130_fd_pr__res_high_po_0p35 l=18
.ends

.subckt sky130_fd_pr__pfet_01v8_3QWEX8 a_114_21# a_n180_1349# a_n376_n1415# a_n225_118#
+ a_n225_n1318# a_69_118# a_363_n1318# a_114_n87# a_167_118# a_n278_n87# a_n323_118#
+ a_212_n1415# a_n421_n1318# a_265_118# a_16_1349# a_n127_n1318# a_265_n1318# a_n421_118#
+ a_310_n87# a_363_118# a_n29_n1318# a_n82_21# a_16_n1415# a_212_1349# a_n323_n1318#
+ a_n180_n1415# a_n29_118# a_167_n1318# a_310_21# a_n127_118# a_69_n1318# a_n376_1349#
+ a_n82_n87# w_n559_n1537# a_n278_21#
X0 a_n323_n1318# a_n376_n1415# a_n421_n1318# w_n559_n1537# sky130_fd_pr__pfet_01v8 ad=0.87 pd=6.29 as=1.74 ps=12.58 w=6 l=0.2
X1 a_n127_n1318# a_n180_n1415# a_n225_n1318# w_n559_n1537# sky130_fd_pr__pfet_01v8 ad=0.87 pd=6.29 as=0.87 ps=6.29 w=6 l=0.2
X2 a_n127_118# a_n180_1349# a_n225_118# w_n559_n1537# sky130_fd_pr__pfet_01v8 ad=0.87 pd=6.29 as=0.87 ps=6.29 w=6 l=0.2
X3 a_265_n1318# a_212_n1415# a_167_n1318# w_n559_n1537# sky130_fd_pr__pfet_01v8 ad=0.87 pd=6.29 as=0.87 ps=6.29 w=6 l=0.2
X4 a_69_118# a_16_1349# a_n29_118# w_n559_n1537# sky130_fd_pr__pfet_01v8 ad=0.87 pd=6.29 as=0.87 ps=6.29 w=6 l=0.2
X5 a_167_118# a_114_21# a_69_118# w_n559_n1537# sky130_fd_pr__pfet_01v8 ad=0.87 pd=6.29 as=0.87 ps=6.29 w=6 l=0.2
X6 a_n225_118# a_n278_21# a_n323_118# w_n559_n1537# sky130_fd_pr__pfet_01v8 ad=0.87 pd=6.29 as=0.87 ps=6.29 w=6 l=0.2
X7 a_n225_n1318# a_n278_n87# a_n323_n1318# w_n559_n1537# sky130_fd_pr__pfet_01v8 ad=0.87 pd=6.29 as=0.87 ps=6.29 w=6 l=0.2
X8 a_69_n1318# a_16_n1415# a_n29_n1318# w_n559_n1537# sky130_fd_pr__pfet_01v8 ad=0.87 pd=6.29 as=0.87 ps=6.29 w=6 l=0.2
X9 a_n29_118# a_n82_21# a_n127_118# w_n559_n1537# sky130_fd_pr__pfet_01v8 ad=0.87 pd=6.29 as=0.87 ps=6.29 w=6 l=0.2
X10 a_265_118# a_212_1349# a_167_118# w_n559_n1537# sky130_fd_pr__pfet_01v8 ad=0.87 pd=6.29 as=0.87 ps=6.29 w=6 l=0.2
X11 a_167_n1318# a_114_n87# a_69_n1318# w_n559_n1537# sky130_fd_pr__pfet_01v8 ad=0.87 pd=6.29 as=0.87 ps=6.29 w=6 l=0.2
X12 a_363_n1318# a_310_n87# a_265_n1318# w_n559_n1537# sky130_fd_pr__pfet_01v8 ad=1.74 pd=12.58 as=0.87 ps=6.29 w=6 l=0.2
X13 a_n323_118# a_n376_1349# a_n421_118# w_n559_n1537# sky130_fd_pr__pfet_01v8 ad=0.87 pd=6.29 as=1.74 ps=12.58 w=6 l=0.2
X14 a_n29_n1318# a_n82_n87# a_n127_n1318# w_n559_n1537# sky130_fd_pr__pfet_01v8 ad=0.87 pd=6.29 as=0.87 ps=6.29 w=6 l=0.2
X15 a_363_118# a_310_21# a_265_118# w_n559_n1537# sky130_fd_pr__pfet_01v8 ad=1.74 pd=12.58 as=0.87 ps=6.29 w=6 l=0.2
.ends

.subckt sky130_fd_pr__nfet_01v8_7CP4KT a_n405_n200# a_15_n200# a_343_n200# a_n287_n200#
+ a_387_n288# a_177_222# a_225_n200# a_n599_n374# a_n497_n200# a_n243_222# a_435_n200#
+ a_n195_n200# a_n453_n288# a_133_n200# a_n77_n200# a_n33_n288#
X0 a_15_n200# a_n33_n288# a_n77_n200# a_n599_n374# sky130_fd_pr__nfet_01v8 ad=0.62 pd=4.62 as=0.62 ps=4.62 w=2 l=0.15
X1 a_435_n200# a_387_n288# a_343_n200# a_n599_n374# sky130_fd_pr__nfet_01v8 ad=0.62 pd=4.62 as=0.62 ps=4.62 w=2 l=0.15
X2 a_225_n200# a_177_222# a_133_n200# a_n599_n374# sky130_fd_pr__nfet_01v8 ad=0.62 pd=4.62 as=0.62 ps=4.62 w=2 l=0.15
X3 a_n195_n200# a_n243_222# a_n287_n200# a_n599_n374# sky130_fd_pr__nfet_01v8 ad=0.62 pd=4.62 as=0.62 ps=4.62 w=2 l=0.15
X4 a_n405_n200# a_n453_n288# a_n497_n200# a_n599_n374# sky130_fd_pr__nfet_01v8 ad=0.62 pd=4.62 as=0.62 ps=4.62 w=2 l=0.15
.ends

.subckt sky130_fd_pr__nfet_01v8_lvt_56HSEP a_15_n278# a_n81_212# a_n177_n278# a_n221_n190#
+ a_n129_n190# a_63_n190# a_n323_n364# a_n33_n190# a_111_212# a_159_n190#
X0 a_n129_n190# a_n177_n278# a_n221_n190# a_n323_n364# sky130_fd_pr__nfet_01v8_lvt ad=0.3135 pd=2.23 as=0.589 ps=4.42 w=1.9 l=0.15
X1 a_n33_n190# a_n81_212# a_n129_n190# a_n323_n364# sky130_fd_pr__nfet_01v8_lvt ad=0.3135 pd=2.23 as=0.3135 ps=2.23 w=1.9 l=0.15
X2 a_159_n190# a_111_212# a_63_n190# a_n323_n364# sky130_fd_pr__nfet_01v8_lvt ad=0.589 pd=4.42 as=0.3135 ps=2.23 w=1.9 l=0.15
X3 a_63_n190# a_15_n278# a_n33_n190# a_n323_n364# sky130_fd_pr__nfet_01v8_lvt ad=0.3135 pd=2.23 as=0.3135 ps=2.23 w=1.9 l=0.15
.ends

.subckt sky130_fd_pr__pfet_01v8_LGS3BL a_n73_n64# a_n33_n161# a_15_n64# w_n211_n284#
X0 a_15_n64# a_n33_n161# a_n73_n64# w_n211_n284# sky130_fd_pr__pfet_01v8 ad=0.29 pd=2.58 as=0.29 ps=2.58 w=1 l=0.15
.ends

.subckt sky130_fd_pr__pfet_01v8_GCK2T6 a_708_n800# a_n222_n800# a_n1196_n800# a_n50_n897#
+ a_n866_n897# a_n1582_n800# a_50_n800# a_n380_n800# a_n1410_n897# a_866_n800# a_1252_n800#
+ a_1310_n897# a_n1740_n800# a_164_n800# a_222_n897# a_n1138_n897# a_n108_n800# a_n494_n800#
+ a_1410_n800# a_1038_n897# a_n322_n897# a_n1468_n800# a_322_n800# a_n1682_n897# a_n652_n800#
+ a_1138_n800# a_1582_n897# a_1524_n800# a_494_n897# a_436_n800# a_n594_n897# a_1682_n800#
+ a_n766_n800# a_594_n800# a_n1310_n800# a_980_n800# a_n924_n800# a_n1038_n800# a_766_n897#
+ w_n1878_n1019#
X0 a_n222_n800# a_n322_n897# a_n380_n800# w_n1878_n1019# sky130_fd_pr__pfet_01v8 ad=2.32 pd=16.58 as=2.32 ps=16.58 w=8 l=0.5
X1 a_594_n800# a_494_n897# a_436_n800# w_n1878_n1019# sky130_fd_pr__pfet_01v8 ad=2.32 pd=16.58 as=2.32 ps=16.58 w=8 l=0.5
X2 a_n1582_n800# a_n1682_n897# a_n1740_n800# w_n1878_n1019# sky130_fd_pr__pfet_01v8 ad=2.32 pd=16.58 as=2.32 ps=16.58 w=8 l=0.5
X3 a_322_n800# a_222_n897# a_164_n800# w_n1878_n1019# sky130_fd_pr__pfet_01v8 ad=2.32 pd=16.58 as=2.32 ps=16.58 w=8 l=0.5
X4 a_1682_n800# a_1582_n897# a_1524_n800# w_n1878_n1019# sky130_fd_pr__pfet_01v8 ad=2.32 pd=16.58 as=2.32 ps=16.58 w=8 l=0.5
X5 a_1410_n800# a_1310_n897# a_1252_n800# w_n1878_n1019# sky130_fd_pr__pfet_01v8 ad=2.32 pd=16.58 as=2.32 ps=16.58 w=8 l=0.5
X6 a_n1038_n800# a_n1138_n897# a_n1196_n800# w_n1878_n1019# sky130_fd_pr__pfet_01v8 ad=2.32 pd=16.58 as=2.32 ps=16.58 w=8 l=0.5
X7 a_1138_n800# a_1038_n897# a_980_n800# w_n1878_n1019# sky130_fd_pr__pfet_01v8 ad=2.32 pd=16.58 as=2.32 ps=16.58 w=8 l=0.5
X8 a_n766_n800# a_n866_n897# a_n924_n800# w_n1878_n1019# sky130_fd_pr__pfet_01v8 ad=2.32 pd=16.58 as=2.32 ps=16.58 w=8 l=0.5
X9 a_866_n800# a_766_n897# a_708_n800# w_n1878_n1019# sky130_fd_pr__pfet_01v8 ad=2.32 pd=16.58 as=2.32 ps=16.58 w=8 l=0.5
X10 a_n494_n800# a_n594_n897# a_n652_n800# w_n1878_n1019# sky130_fd_pr__pfet_01v8 ad=2.32 pd=16.58 as=2.32 ps=16.58 w=8 l=0.5
X11 a_50_n800# a_n50_n897# a_n108_n800# w_n1878_n1019# sky130_fd_pr__pfet_01v8 ad=2.32 pd=16.58 as=2.32 ps=16.58 w=8 l=0.5
X12 a_n1310_n800# a_n1410_n897# a_n1468_n800# w_n1878_n1019# sky130_fd_pr__pfet_01v8 ad=2.32 pd=16.58 as=2.32 ps=16.58 w=8 l=0.5
.ends

.subckt preamplifier IN_P IN_N OUT_N OUT_P EN CAL_P CAL_N VDD VSS
XXM12 m1_n1450_7580# OUT_P OUT_P m1_n414_8402# m1_n1450_7580# m1_n414_8402# m1_n414_8402#
+ m1_n414_8402# m1_n1450_7580# VSS sky130_fd_pr__nfet_01v8_F5PS5H
Xx1 EN VSS VSS VDD VDD x1/Y sky130_fd_sc_hd__inv_1
Xsky130_fd_pr__pfet_01v8_hvt_U47ZGH_0 m1_460_8710# OUT_N OUT_N VSS VSS VDD VSS m1_460_8710#
+ m1_460_8710# VSS sky130_fd_pr__pfet_01v8_hvt_U47ZGH
XXM15 VDD m1_n1450_7580# CAL_N m1_n3600_7580# m1_n2020_7010# CAL_P sky130_fd_pr__pfet_01v8_lvt_6VC8VM
XXM16 m1_2580_7820# VSS VSS EN sky130_fd_pr__nfet_01v8_VGBCTM
Xsky130_fd_pr__pfet_01v8_hvt_U47ZGH_1 m1_460_7540# OUT_P OUT_P VSS VSS VDD VSS m1_460_7540#
+ m1_460_7540# VSS sky130_fd_pr__pfet_01v8_hvt_U47ZGH
Xsky130_fd_pr__pfet_01v8_XPKDX6_0 IN_N IN_N IN_P m1_n2318_8074# m1_n2318_8074# m1_460_7540#
+ m1_n2318_8074# IN_P m1_n2318_8074# IN_P m1_460_7540# IN_P m1_n2318_8074# m1_460_7540#
+ IN_N m1_460_8710# m1_460_8710# m1_n2318_8074# IN_P m1_n2318_8074# m1_n2318_8074#
+ IN_N IN_P IN_N m1_460_8710# IN_P m1_n2318_8074# m1_n2318_8074# IN_N m1_460_7540#
+ m1_460_8710# IN_N IN_P VDD IN_N sky130_fd_pr__pfet_01v8_XPKDX6
XXM18 m1_n414_8402# VSS x1/Y VSS sky130_fd_pr__nfet_01v8_64Z3AY
XXM19 m1_n630_7350# VDD m1_n630_7350# VSS OUT_N OUT_P sky130_fd_pr__nfet_03v3_nvt_Y5TA2C
Xsky130_fd_pr__nfet_01v8_F5PS5H_0 m1_n2020_7010# OUT_N OUT_N m1_n414_8402# m1_n2020_7010#
+ m1_n414_8402# m1_n414_8402# m1_n414_8402# m1_n2020_7010# VSS sky130_fd_pr__nfet_01v8_F5PS5H
Xsky130_fd_pr__res_high_po_0p35_699HP9_0 m1_n890_7080# OUT_P m1_3030_9130# m1_3040_8130#
+ m1_3030_9130# m1_7050_8300# m1_7070_8630# m1_6990_9470# m1_n3230_9640# m1_3060_8460#
+ m1_7060_8960# m1_2580_7820# m1_3040_8790# m1_n414_8402# m1_6990_9470# m1_7050_8300#
+ m1_3040_8130# m1_7060_8960# m1_3040_8790# m1_3060_8460# VSS m1_7070_8630# OUT_N
+ sky130_fd_pr__res_high_po_0p35_699HP9
Xsky130_fd_pr__pfet_01v8_3QWEX8_0 IN_P IN_P IN_N m1_n2318_8074# m1_n2318_8074# m1_460_8710#
+ m1_n2318_8074# IN_N m1_n2318_8074# IN_N m1_460_8710# IN_N m1_n2318_8074# m1_460_8710#
+ IN_P m1_460_7540# m1_460_7540# m1_n2318_8074# IN_N m1_n2318_8074# m1_n2318_8074#
+ IN_P IN_N IN_P m1_460_7540# IN_N m1_n2318_8074# m1_n2318_8074# IN_P m1_460_8710#
+ m1_460_7540# IN_P IN_N VDD IN_P sky130_fd_pr__pfet_01v8_3QWEX8
Xsky130_fd_pr__nfet_01v8_7CP4KT_0 VSS m1_n890_7080# VSS VSS m1_n890_7080# m1_n890_7080#
+ m1_n630_7350# VSS VSS m1_n890_7080# VSS m1_n630_7350# m1_n890_7080# VSS VSS m1_n890_7080#
+ sky130_fd_pr__nfet_01v8_7CP4KT
XXM8 m1_n630_7350# m1_n630_7350# VSS VSS m1_n2020_7010# m1_n1450_7580# VSS VSS VSS
+ VSS sky130_fd_pr__nfet_01v8_lvt_56HSEP
Xsky130_fd_pr__pfet_01v8_LGS3BL_0 m1_n3230_9640# EN VDD VDD sky130_fd_pr__pfet_01v8_LGS3BL
Xsky130_fd_pr__pfet_01v8_GCK2T6_0 VDD m1_n2318_8074# VDD m1_n3230_9640# m1_n3230_9640#
+ VDD m1_n3230_9640# VDD m1_n3230_9640# m1_n2318_8074# VDD m1_n3230_9640# VDD VDD
+ m1_n3230_9640# m1_n3230_9640# VDD m1_n2318_8074# m1_n3600_7580# m1_n3230_9640# m1_n3230_9640#
+ VDD m1_n2318_8074# m1_n3230_9640# VDD m1_n414_8402# m1_n3230_9640# VDD m1_n3230_9640#
+ VDD m1_n3230_9640# VDD m1_n2318_8074# m1_n2318_8074# m1_n3600_7580# VDD VDD m1_n3600_7580#
+ m1_n3230_9640# VDD sky130_fd_pr__pfet_01v8_GCK2T6
.ends

.subckt sky130_fd_sc_hd__nor2_1 A B VGND VNB VPB VPWR Y
X0 VPWR A a_109_297# VPB sky130_fd_pr__pfet_01v8_hvt ad=0.26 pd=2.52 as=0.105 ps=1.21 w=1 l=0.15
X1 VGND A Y VNB sky130_fd_pr__nfet_01v8 ad=0.169 pd=1.82 as=0.08775 ps=0.92 w=0.65 l=0.15
X2 a_109_297# B Y VPB sky130_fd_pr__pfet_01v8_hvt ad=0.105 pd=1.21 as=0.26 ps=2.52 w=1 l=0.15
X3 Y B VGND VNB sky130_fd_pr__nfet_01v8 ad=0.08775 pd=0.92 as=0.169 ps=1.82 w=0.65 l=0.15
.ends

.subckt sky130_fd_sc_hd__o21a_1 A1 A2 B1 VGND VNB VPB VPWR X
X0 VPWR A1 a_382_297# VPB sky130_fd_pr__pfet_01v8_hvt ad=0.26 pd=2.52 as=0.1525 ps=1.305 w=1 l=0.15
X1 a_297_47# B1 a_79_21# VNB sky130_fd_pr__nfet_01v8 ad=0.10075 pd=0.96 as=0.169 ps=1.82 w=0.65 l=0.15
X2 a_297_47# A1 VGND VNB sky130_fd_pr__nfet_01v8 ad=0.169 pd=1.82 as=0.08775 ps=0.92 w=0.65 l=0.15
X3 VGND A2 a_297_47# VNB sky130_fd_pr__nfet_01v8 ad=0.08775 pd=0.92 as=0.10075 ps=0.96 w=0.65 l=0.15
X4 VPWR a_79_21# X VPB sky130_fd_pr__pfet_01v8_hvt ad=0.3275 pd=1.655 as=0.28 ps=2.56 w=1 l=0.15
X5 a_79_21# B1 VPWR VPB sky130_fd_pr__pfet_01v8_hvt ad=0.195 pd=1.39 as=0.3275 ps=1.655 w=1 l=0.15
X6 a_382_297# A2 a_79_21# VPB sky130_fd_pr__pfet_01v8_hvt ad=0.1525 pd=1.305 as=0.195 ps=1.39 w=1 l=0.15
X7 VGND a_79_21# X VNB sky130_fd_pr__nfet_01v8 ad=0.169 pd=1.82 as=0.169 ps=1.82 w=0.65 l=0.15
.ends

.subckt sky130_fd_sc_hd__buf_2 A VGND VNB VPB VPWR X
X0 VPWR a_27_47# X VPB sky130_fd_pr__pfet_01v8_hvt ad=0.265 pd=2.53 as=0.135 ps=1.27 w=1 l=0.15
X1 X a_27_47# VPWR VPB sky130_fd_pr__pfet_01v8_hvt ad=0.135 pd=1.27 as=0.149 ps=1.325 w=1 l=0.15
X2 VPWR A a_27_47# VPB sky130_fd_pr__pfet_01v8_hvt ad=0.149 pd=1.325 as=0.1664 ps=1.8 w=0.64 l=0.15
X3 X a_27_47# VGND VNB sky130_fd_pr__nfet_01v8 ad=0.08775 pd=0.92 as=0.097 ps=0.975 w=0.65 l=0.15
X4 VGND a_27_47# X VNB sky130_fd_pr__nfet_01v8 ad=0.17225 pd=1.83 as=0.08775 ps=0.92 w=0.65 l=0.15
X5 VGND A a_27_47# VNB sky130_fd_pr__nfet_01v8 ad=0.097 pd=0.975 as=0.1092 ps=1.36 w=0.42 l=0.15
.ends

.subckt sky130_fd_sc_hd__mux2_1 A0 A1 S VGND VNB VPB VPWR X
X0 VPWR a_505_21# a_535_374# VPB sky130_fd_pr__pfet_01v8_hvt ad=0.0693 pd=0.75 as=0.0441 ps=0.63 w=0.42 l=0.15
X1 a_505_21# S VPWR VPB sky130_fd_pr__pfet_01v8_hvt ad=0.1176 pd=1.4 as=0.0693 ps=0.75 w=0.42 l=0.15
X2 a_218_374# S VPWR VPB sky130_fd_pr__pfet_01v8_hvt ad=0.07665 pd=0.785 as=0.15835 ps=1.395 w=0.42 l=0.15
X3 VGND a_505_21# a_439_47# VNB sky130_fd_pr__nfet_01v8 ad=0.1449 pd=1.11 as=0.0693 ps=0.75 w=0.42 l=0.15
X4 a_76_199# A0 a_218_374# VPB sky130_fd_pr__pfet_01v8_hvt ad=0.1932 pd=1.34 as=0.07665 ps=0.785 w=0.42 l=0.15
X5 a_505_21# S VGND VNB sky130_fd_pr__nfet_01v8 ad=0.1092 pd=1.36 as=0.1449 ps=1.11 w=0.42 l=0.15
X6 a_439_47# A0 a_76_199# VNB sky130_fd_pr__nfet_01v8 ad=0.0693 pd=0.75 as=0.09975 ps=0.895 w=0.42 l=0.15
X7 a_535_374# A1 a_76_199# VPB sky130_fd_pr__pfet_01v8_hvt ad=0.0441 pd=0.63 as=0.1932 ps=1.34 w=0.42 l=0.15
X8 a_76_199# A1 a_218_47# VNB sky130_fd_pr__nfet_01v8 ad=0.09975 pd=0.895 as=0.0693 ps=0.75 w=0.42 l=0.15
X9 a_218_47# S VGND VNB sky130_fd_pr__nfet_01v8 ad=0.0693 pd=0.75 as=0.11285 ps=1.045 w=0.42 l=0.15
X10 VPWR a_76_199# X VPB sky130_fd_pr__pfet_01v8_hvt ad=0.15835 pd=1.395 as=0.26 ps=2.52 w=1 l=0.15
X11 VGND a_76_199# X VNB sky130_fd_pr__nfet_01v8 ad=0.11285 pd=1.045 as=0.169 ps=1.82 w=0.65 l=0.15
.ends

.subckt sky130_fd_sc_hd__nand2b_1 A_N B VGND VNB VPB VPWR Y
X0 VGND A_N a_27_93# VNB sky130_fd_pr__nfet_01v8 ad=0.10025 pd=0.985 as=0.1092 ps=1.36 w=0.42 l=0.15
X1 Y a_27_93# a_206_47# VNB sky130_fd_pr__nfet_01v8 ad=0.169 pd=1.82 as=0.08775 ps=0.92 w=0.65 l=0.15
X2 a_206_47# B VGND VNB sky130_fd_pr__nfet_01v8 ad=0.08775 pd=0.92 as=0.10025 ps=0.985 w=0.65 l=0.15
X3 VPWR a_27_93# Y VPB sky130_fd_pr__pfet_01v8_hvt ad=0.265 pd=2.53 as=0.135 ps=1.27 w=1 l=0.15
X4 Y B VPWR VPB sky130_fd_pr__pfet_01v8_hvt ad=0.135 pd=1.27 as=0.14575 ps=1.335 w=1 l=0.15
X5 VPWR A_N a_27_93# VPB sky130_fd_pr__pfet_01v8_hvt ad=0.14575 pd=1.335 as=0.1092 ps=1.36 w=0.42 l=0.15
.ends

.subckt sky130_fd_sc_hd__nor3b_1 A B C_N VGND VNB VPB VPWR Y
X0 VGND a_91_199# Y VNB sky130_fd_pr__nfet_01v8 ad=0.08775 pd=0.92 as=0.221 ps=1.98 w=0.65 l=0.15
X1 Y B VGND VNB sky130_fd_pr__nfet_01v8 ad=0.08775 pd=0.92 as=0.08775 ps=0.92 w=0.65 l=0.15
X2 VPWR A a_245_297# VPB sky130_fd_pr__pfet_01v8_hvt ad=0.14575 pd=1.335 as=0.135 ps=1.27 w=1 l=0.15
X3 a_91_199# C_N VGND VNB sky130_fd_pr__nfet_01v8 ad=0.1092 pd=1.36 as=0.10025 ps=0.985 w=0.42 l=0.15
X4 VGND A Y VNB sky130_fd_pr__nfet_01v8 ad=0.10025 pd=0.985 as=0.08775 ps=0.92 w=0.65 l=0.15
X5 a_245_297# B a_161_297# VPB sky130_fd_pr__pfet_01v8_hvt ad=0.135 pd=1.27 as=0.135 ps=1.27 w=1 l=0.15
X6 a_91_199# C_N VPWR VPB sky130_fd_pr__pfet_01v8_hvt ad=0.1092 pd=1.36 as=0.14575 ps=1.335 w=0.42 l=0.15
X7 a_161_297# a_91_199# Y VPB sky130_fd_pr__pfet_01v8_hvt ad=0.135 pd=1.27 as=0.32 ps=2.64 w=1 l=0.15
.ends

.subckt sky130_fd_sc_hd__clkbuf_4 A VGND VNB VPB VPWR X
X0 VPWR A a_27_47# VPB sky130_fd_pr__pfet_01v8_hvt ad=0.165 pd=1.33 as=0.265 ps=2.53 w=1 l=0.15
X1 VGND a_27_47# X VNB sky130_fd_pr__nfet_01v8 ad=0.1218 pd=1.42 as=0.0588 ps=0.7 w=0.42 l=0.15
X2 VGND a_27_47# X VNB sky130_fd_pr__nfet_01v8 ad=0.0588 pd=0.7 as=0.0588 ps=0.7 w=0.42 l=0.15
X3 X a_27_47# VPWR VPB sky130_fd_pr__pfet_01v8_hvt ad=0.14 pd=1.28 as=0.14 ps=1.28 w=1 l=0.15
X4 X a_27_47# VGND VNB sky130_fd_pr__nfet_01v8 ad=0.0588 pd=0.7 as=0.0588 ps=0.7 w=0.42 l=0.15
X5 VGND A a_27_47# VNB sky130_fd_pr__nfet_01v8 ad=0.07035 pd=0.755 as=0.1113 ps=1.37 w=0.42 l=0.15
X6 VPWR a_27_47# X VPB sky130_fd_pr__pfet_01v8_hvt ad=0.3 pd=2.6 as=0.14 ps=1.28 w=1 l=0.15
X7 X a_27_47# VGND VNB sky130_fd_pr__nfet_01v8 ad=0.0588 pd=0.7 as=0.07035 ps=0.755 w=0.42 l=0.15
X8 X a_27_47# VPWR VPB sky130_fd_pr__pfet_01v8_hvt ad=0.14 pd=1.28 as=0.165 ps=1.33 w=1 l=0.15
X9 VPWR a_27_47# X VPB sky130_fd_pr__pfet_01v8_hvt ad=0.14 pd=1.28 as=0.14 ps=1.28 w=1 l=0.15
.ends

.subckt sky130_fd_sc_hd__a22o_1 A1 A2 B1 B2 VGND VNB VPB VPWR X
X0 VPWR A2 a_109_297# VPB sky130_fd_pr__pfet_01v8_hvt ad=0.155 pd=1.31 as=0.16 ps=1.32 w=1 l=0.15
X1 a_27_297# B1 a_109_47# VNB sky130_fd_pr__nfet_01v8 ad=0.169 pd=1.82 as=0.07475 ps=0.88 w=0.65 l=0.15
X2 VGND A2 a_373_47# VNB sky130_fd_pr__nfet_01v8 ad=0.10075 pd=0.96 as=0.11375 ps=1 w=0.65 l=0.15
X3 X a_27_297# VPWR VPB sky130_fd_pr__pfet_01v8_hvt ad=0.26 pd=2.52 as=0.155 ps=1.31 w=1 l=0.15
X4 a_27_297# B1 a_109_297# VPB sky130_fd_pr__pfet_01v8_hvt ad=0.25285 pd=2.52 as=0.135 ps=1.27 w=1 l=0.15
X5 a_109_297# A1 VPWR VPB sky130_fd_pr__pfet_01v8_hvt ad=0.16 pd=1.32 as=0.2529 ps=2.52 w=1 l=0.15
X6 a_373_47# A1 a_27_297# VNB sky130_fd_pr__nfet_01v8 ad=0.11375 pd=1 as=0.169 ps=1.82 w=0.65 l=0.15
X7 X a_27_297# VGND VNB sky130_fd_pr__nfet_01v8 ad=0.169 pd=1.82 as=0.10075 ps=0.96 w=0.65 l=0.15
X8 a_109_297# B2 a_27_297# VPB sky130_fd_pr__pfet_01v8_hvt ad=0.135 pd=1.27 as=0.26 ps=2.52 w=1 l=0.15
X9 a_109_47# B2 VGND VNB sky130_fd_pr__nfet_01v8 ad=0.07475 pd=0.88 as=0.169 ps=1.82 w=0.65 l=0.15
.ends

.subckt sky130_fd_sc_hd__decap_8 VGND VNB VPB VPWR
X0 VPWR VGND VPWR VPB sky130_fd_pr__pfet_01v8_hvt ad=0.2262 pd=2.26 as=0.4524 ps=4.52 w=0.87 l=2.89
X1 VGND VPWR VGND VNB sky130_fd_pr__nfet_01v8 ad=0.143 pd=1.62 as=0.286 ps=3.24 w=0.55 l=2.89
.ends

.subckt sky130_fd_sc_hd__and2_1 A B VGND VNB VPB VPWR X
X0 VPWR B a_59_75# VPB sky130_fd_pr__pfet_01v8_hvt ad=0.16655 pd=1.39 as=0.0567 ps=0.69 w=0.42 l=0.15
X1 X a_59_75# VPWR VPB sky130_fd_pr__pfet_01v8_hvt ad=0.475 pd=2.95 as=0.16655 ps=1.39 w=1 l=0.15
X2 VGND B a_145_75# VNB sky130_fd_pr__nfet_01v8 ad=0.1118 pd=1.04 as=0.0567 ps=0.69 w=0.42 l=0.15
X3 a_59_75# A VPWR VPB sky130_fd_pr__pfet_01v8_hvt ad=0.0567 pd=0.69 as=0.1176 ps=1.4 w=0.42 l=0.15
X4 X a_59_75# VGND VNB sky130_fd_pr__nfet_01v8 ad=0.182 pd=1.86 as=0.1118 ps=1.04 w=0.65 l=0.15
X5 a_145_75# A a_59_75# VNB sky130_fd_pr__nfet_01v8 ad=0.0567 pd=0.69 as=0.1176 ps=1.4 w=0.42 l=0.15
.ends

.subckt sky130_fd_sc_hd__decap_3 VGND VNB VPB VPWR
X0 VPWR VGND VPWR VPB sky130_fd_pr__pfet_01v8_hvt ad=0.2262 pd=2.26 as=0.4524 ps=4.52 w=0.87 l=0.59
X1 VGND VPWR VGND VNB sky130_fd_pr__nfet_01v8 ad=0.143 pd=1.62 as=0.286 ps=3.24 w=0.55 l=0.59
.ends

.subckt sky130_fd_sc_hd__a31o_1 A1 A2 A3 B1 VGND VNB VPB VPWR X
X0 VPWR a_80_21# X VPB sky130_fd_pr__pfet_01v8_hvt ad=0.1725 pd=1.345 as=0.265 ps=2.53 w=1 l=0.15
X1 a_209_297# A3 VPWR VPB sky130_fd_pr__pfet_01v8_hvt ad=0.16 pd=1.32 as=0.1725 ps=1.345 w=1 l=0.15
X2 a_303_47# A2 a_209_47# VNB sky130_fd_pr__nfet_01v8 ad=0.10725 pd=0.98 as=0.104 ps=0.97 w=0.65 l=0.15
X3 a_209_47# A3 VGND VNB sky130_fd_pr__nfet_01v8 ad=0.104 pd=0.97 as=0.112125 ps=0.995 w=0.65 l=0.15
X4 VGND a_80_21# X VNB sky130_fd_pr__nfet_01v8 ad=0.112125 pd=0.995 as=0.17225 ps=1.83 w=0.65 l=0.15
X5 VGND B1 a_80_21# VNB sky130_fd_pr__nfet_01v8 ad=0.208 pd=1.94 as=0.10725 ps=0.98 w=0.65 l=0.15
X6 a_80_21# A1 a_303_47# VNB sky130_fd_pr__nfet_01v8 ad=0.10725 pd=0.98 as=0.10725 ps=0.98 w=0.65 l=0.15
X7 VPWR A2 a_209_297# VPB sky130_fd_pr__pfet_01v8_hvt ad=0.165 pd=1.33 as=0.16 ps=1.32 w=1 l=0.15
X8 a_80_21# B1 a_209_297# VPB sky130_fd_pr__pfet_01v8_hvt ad=0.32 pd=2.64 as=0.165 ps=1.33 w=1 l=0.15
X9 a_209_297# A1 VPWR VPB sky130_fd_pr__pfet_01v8_hvt ad=0.165 pd=1.33 as=0.165 ps=1.33 w=1 l=0.15
.ends

.subckt sky130_fd_sc_hd__o211ai_1 A1 A2 B1 C1 VGND VNB VPB VPWR Y
X0 a_110_297# A1 VPWR VPB sky130_fd_pr__pfet_01v8_hvt ad=0.105 pd=1.21 as=0.265 ps=2.53 w=1 l=0.15
X1 VGND A1 a_27_47# VNB sky130_fd_pr__nfet_01v8 ad=0.12675 pd=1.04 as=0.17225 ps=1.83 w=0.65 l=0.15
X2 Y A2 a_110_297# VPB sky130_fd_pr__pfet_01v8_hvt ad=0.195 pd=1.39 as=0.105 ps=1.21 w=1 l=0.15
X3 VPWR B1 Y VPB sky130_fd_pr__pfet_01v8_hvt ad=0.195 pd=1.39 as=0.195 ps=1.39 w=1 l=0.15
X4 a_27_47# A2 VGND VNB sky130_fd_pr__nfet_01v8 ad=0.12675 pd=1.04 as=0.12675 ps=1.04 w=0.65 l=0.15
X5 a_326_47# B1 a_27_47# VNB sky130_fd_pr__nfet_01v8 ad=0.06825 pd=0.86 as=0.12675 ps=1.04 w=0.65 l=0.15
X6 Y C1 VPWR VPB sky130_fd_pr__pfet_01v8_hvt ad=0.635 pd=3.27 as=0.195 ps=1.39 w=1 l=0.15
X7 Y C1 a_326_47# VNB sky130_fd_pr__nfet_01v8 ad=0.39325 pd=2.51 as=0.06825 ps=0.86 w=0.65 l=0.15
.ends

.subckt sky130_fd_sc_hd__a21o_1 A1 A2 B1 VGND VNB VPB VPWR X
X0 a_81_21# B1 VGND VNB sky130_fd_pr__nfet_01v8 ad=0.089375 pd=0.925 as=0.25675 ps=1.44 w=0.65 l=0.15
X1 a_299_297# B1 a_81_21# VPB sky130_fd_pr__pfet_01v8_hvt ad=0.1375 pd=1.275 as=0.26 ps=2.52 w=1 l=0.15
X2 VPWR a_81_21# X VPB sky130_fd_pr__pfet_01v8_hvt ad=0.26 pd=2.52 as=0.26 ps=2.52 w=1 l=0.15
X3 VPWR A1 a_299_297# VPB sky130_fd_pr__pfet_01v8_hvt ad=0.14 pd=1.28 as=0.1375 ps=1.275 w=1 l=0.15
X4 VGND a_81_21# X VNB sky130_fd_pr__nfet_01v8 ad=0.25675 pd=1.44 as=0.169 ps=1.82 w=0.65 l=0.15
X5 VGND A2 a_384_47# VNB sky130_fd_pr__nfet_01v8 ad=0.17225 pd=1.83 as=0.091 ps=0.93 w=0.65 l=0.15
X6 a_299_297# A2 VPWR VPB sky130_fd_pr__pfet_01v8_hvt ad=0.265 pd=2.53 as=0.14 ps=1.28 w=1 l=0.15
X7 a_384_47# A1 a_81_21# VNB sky130_fd_pr__nfet_01v8 ad=0.091 pd=0.93 as=0.089375 ps=0.925 w=0.65 l=0.15
.ends

.subckt sky130_fd_sc_hd__or4b_4 A B C D_N VGND VNB VPB VPWR X
X0 X a_215_297# VPWR VPB sky130_fd_pr__pfet_01v8_hvt ad=0.135 pd=1.27 as=0.135 ps=1.27 w=1 l=0.15
X1 VGND a_215_297# X VNB sky130_fd_pr__nfet_01v8 ad=0.17875 pd=1.85 as=0.08775 ps=0.92 w=0.65 l=0.15
X2 VPWR a_215_297# X VPB sky130_fd_pr__pfet_01v8_hvt ad=0.135 pd=1.27 as=0.135 ps=1.27 w=1 l=0.15
X3 a_109_93# D_N VGND VNB sky130_fd_pr__nfet_01v8 ad=0.10785 pd=1.36 as=0.1092 ps=1.36 w=0.42 l=0.15
X4 a_215_297# a_109_93# VGND VNB sky130_fd_pr__nfet_01v8 ad=0.1235 pd=1.03 as=0.16535 ps=1.82 w=0.65 l=0.15
X5 VGND C a_215_297# VNB sky130_fd_pr__nfet_01v8 ad=0.08775 pd=0.92 as=0.1235 ps=1.03 w=0.65 l=0.15
X6 VGND A a_215_297# VNB sky130_fd_pr__nfet_01v8 ad=0.1235 pd=1.03 as=0.08775 ps=0.92 w=0.65 l=0.15
X7 X a_215_297# VPWR VPB sky130_fd_pr__pfet_01v8_hvt ad=0.135 pd=1.27 as=0.19 ps=1.38 w=1 l=0.15
X8 a_215_297# B VGND VNB sky130_fd_pr__nfet_01v8 ad=0.08775 pd=0.92 as=0.08775 ps=0.92 w=0.65 l=0.15
X9 a_109_93# D_N VPWR VPB sky130_fd_pr__pfet_01v8_hvt ad=0.1092 pd=1.36 as=0.1092 ps=1.36 w=0.42 l=0.15
X10 VPWR A a_487_297# VPB sky130_fd_pr__pfet_01v8_hvt ad=0.19 pd=1.38 as=0.135 ps=1.27 w=1 l=0.15
X11 VGND a_215_297# X VNB sky130_fd_pr__nfet_01v8 ad=0.08775 pd=0.92 as=0.08775 ps=0.92 w=0.65 l=0.15
X12 a_487_297# B a_403_297# VPB sky130_fd_pr__pfet_01v8_hvt ad=0.135 pd=1.27 as=0.135 ps=1.27 w=1 l=0.15
X13 a_403_297# C a_297_297# VPB sky130_fd_pr__pfet_01v8_hvt ad=0.135 pd=1.27 as=0.19 ps=1.38 w=1 l=0.15
X14 VPWR a_215_297# X VPB sky130_fd_pr__pfet_01v8_hvt ad=0.26 pd=2.52 as=0.135 ps=1.27 w=1 l=0.15
X15 X a_215_297# VGND VNB sky130_fd_pr__nfet_01v8 ad=0.08775 pd=0.92 as=0.1235 ps=1.03 w=0.65 l=0.15
X16 X a_215_297# VGND VNB sky130_fd_pr__nfet_01v8 ad=0.08775 pd=0.92 as=0.08775 ps=0.92 w=0.65 l=0.15
X17 a_297_297# a_109_93# a_215_297# VPB sky130_fd_pr__pfet_01v8_hvt ad=0.19 pd=1.38 as=0.26 ps=2.52 w=1 l=0.15
.ends

.subckt sky130_fd_sc_hd__nand2_1 A B VGND VNB VPB VPWR Y
X0 VPWR A Y VPB sky130_fd_pr__pfet_01v8_hvt ad=0.26 pd=2.52 as=0.135 ps=1.27 w=1 l=0.15
X1 Y A a_113_47# VNB sky130_fd_pr__nfet_01v8 ad=0.169 pd=1.82 as=0.08775 ps=0.92 w=0.65 l=0.15
X2 a_113_47# B VGND VNB sky130_fd_pr__nfet_01v8 ad=0.08775 pd=0.92 as=0.169 ps=1.82 w=0.65 l=0.15
X3 Y B VPWR VPB sky130_fd_pr__pfet_01v8_hvt ad=0.135 pd=1.27 as=0.26 ps=2.52 w=1 l=0.15
.ends

.subckt sky130_fd_sc_hd__clkbuf_2 A VGND VNB VPB VPWR X
X0 VPWR A a_27_47# VPB sky130_fd_pr__pfet_01v8_hvt ad=0.1625 pd=1.325 as=0.265 ps=2.53 w=1 l=0.15
X1 VPWR a_27_47# X VPB sky130_fd_pr__pfet_01v8_hvt ad=0.26 pd=2.52 as=0.135 ps=1.27 w=1 l=0.15
X2 VGND A a_27_47# VNB sky130_fd_pr__nfet_01v8 ad=0.06825 pd=0.745 as=0.1113 ps=1.37 w=0.42 l=0.15
X3 X a_27_47# VPWR VPB sky130_fd_pr__pfet_01v8_hvt ad=0.135 pd=1.27 as=0.1625 ps=1.325 w=1 l=0.15
X4 X a_27_47# VGND VNB sky130_fd_pr__nfet_01v8 ad=0.0567 pd=0.69 as=0.06825 ps=0.745 w=0.42 l=0.15
X5 VGND a_27_47# X VNB sky130_fd_pr__nfet_01v8 ad=0.1092 pd=1.36 as=0.0567 ps=0.69 w=0.42 l=0.15
.ends

.subckt sky130_fd_sc_hd__nand3b_1 A_N B C VGND VNB VPB VPWR Y
X0 Y a_53_93# VPWR VPB sky130_fd_pr__pfet_01v8_hvt ad=0.28 pd=2.56 as=0.1925 ps=1.385 w=1 l=0.15