* NGSPICE file created from SAR_ADC_12bit_flat.ext - technology: sky130A

.subckt SAR_ADC_12bit VDD VCM VSS VREF VIN_P VIN_N RST_Z CLK_DATA DATA[5] DATA[4] DATA[3] DATA[2] DATA[1] DATA[0] START EN_OFFSET_CAL CLK VREF_GND
+ SINGLE_ENDED
X0 a_13076_44458# a_13259_45724.t13 a_13296_44484# VSS.t76 sky130_fd_pr__nfet_01v8 ad=0.091 pd=0.93 as=0.091 ps=0.93 w=0.65 l=0.15
X1 a_8912_37509.t15 VDAC_P.t23 a_5088_37509.t10 VDD.t65 sky130_fd_pr__pfet_01v8 ad=0.87 pd=6.29 as=0.87 ps=6.29 w=6 l=0.2
X2 VSS.t42 a_12427_45724# a_10490_45724# VSS.t41 sky130_fd_pr__nfet_01v8 ad=0.1034 pd=1 as=0.169 ps=1.82 w=0.65 l=0.15
X3 VDD.t3173 a_2324_44458.t62 a_949_44458# VDD.t3172 sky130_fd_pr__pfet_01v8_hvt ad=0.14 pd=1.28 as=0.14 ps=1.28 w=1 l=0.15
X4 VDD.t227 VSS.t3732 VDD.t226 VDD.t225 sky130_fd_pr__pfet_01v8_hvt ad=0.2262 pd=2.26 as=0 ps=0 w=0.87 l=2.89
X5 a_5088_37509.t13 VDAC_P.t21 a_8912_37509.t2 VDD.t64 sky130_fd_pr__pfet_01v8 ad=0.87 pd=6.29 as=0.87 ps=6.29 w=6 l=0.2
X6 VDD.t3430 CAL_N.t3 VDD.t3430 VDD.t1753 sky130_fd_pr__pfet_01v8_lvt ad=1.45 pd=10.29 as=0 ps=0 w=10 l=10
X7 VDD.t46 a_2903_42308# a_3080_42308.t1 VDD.t45 sky130_fd_pr__pfet_01v8_hvt ad=0.265 pd=2.53 as=0.135 ps=1.27 w=1 l=0.15
X8 VDD.t3189 a_12861_44030.t25 a_17829_46910# VDD.t3188 sky130_fd_pr__pfet_01v8_hvt ad=0.135 pd=1.27 as=0.135 ps=1.27 w=1 l=0.15
X9 VSS.t7 a_1209_43370# a_n1557_42282# VSS.t6 sky130_fd_pr__nfet_01v8 ad=0.25675 pd=1.44 as=0.169 ps=1.82 w=0.65 l=0.15
X10 a_16237_45028# a_16147_45260# a_16019_45002# VDD.t42 sky130_fd_pr__pfet_01v8_hvt ad=0.135 pd=1.27 as=0.26 ps=2.52 w=1 l=0.15
X11 a_2075_43172# a_526_44458.t25 VSS.t3402 VSS.t3401 sky130_fd_pr__nfet_01v8 ad=0.08775 pd=0.92 as=0.08775 ps=0.92 w=0.65 l=0.15
X12 VDD.t3436 a_n755_45592.t8 a_1176_45822# VDD.t3435 sky130_fd_pr__pfet_01v8_hvt ad=0.1925 pd=1.385 as=0.135 ps=1.27 w=1 l=0.15
X13 a_6756_44260# a_5937_45572.t18 a_6453_43914# VSS.t3500 sky130_fd_pr__nfet_01v8 ad=0.091 pd=0.93 as=0.089375 ps=0.925 w=0.65 l=0.15
X14 a_15868_43402# a_15681_43442# a_15781_43660# VSS.t51 sky130_fd_pr__nfet_01v8 ad=0.0441 pd=0.63 as=0.107825 ps=1.36 w=0.42 l=0.15
X15 a_n1533_42852# a_n1613_43370.t8 VDD.t3364 VDD.t3363 sky130_fd_pr__pfet_01v8_hvt ad=0.1092 pd=1.36 as=0.07035 ps=0.755 w=0.42 l=0.15
X16 a_8103_44636# a_8375_44464# a_8333_44734# VDD.t2 sky130_fd_pr__pfet_01v8_hvt ad=0.1092 pd=1.36 as=0.0441 ps=0.63 w=0.42 l=0.15
X17 VSS.t3366 a_16327_47482.t23 a_16377_45572# VSS.t3365 sky130_fd_pr__nfet_01v8 ad=0.1346 pd=1.15 as=0.0441 ps=0.63 w=0.42 l=0.15
X18 a_2437_43646.t0 a_n443_46116.t19 a_2437_43396# VSS.t3051 sky130_fd_pr__nfet_01v8 ad=0.169 pd=1.82 as=0.08775 ps=0.92 w=0.65 l=0.15
X19 a_5088_37509.t17 VSS.t3738 VDAC_Ni.t1 VDD.t224 sky130_fd_pr__pfet_01v8_hvt ad=0.62 pd=4.62 as=0.33 ps=2.33 w=2 l=0.15
X20 a_n2810_45028.t3 a_n2840_45002# VSS.t85 VSS.t84 sky130_fd_pr__nfet_01v8 ad=0.08775 pd=0.92 as=0.17225 ps=1.83 w=0.65 l=0.15
X21 a_2113_38308# VDAC_Ni.t9 a_2112_39137# VSS.t3347 sky130_fd_pr__nfet_01v8_lvt ad=0.31 pd=2.62 as=0.31 ps=2.62 w=1 l=0.15
X22 VDD.t3559 a_3626_43646.t6 a_19647_42308# VDD.t3558 sky130_fd_pr__pfet_01v8_hvt ad=0.149 pd=1.325 as=0.1664 ps=1.8 w=0.64 l=0.15
X23 VSS.t93 a_10334_44484# a_10440_44484# VSS.t92 sky130_fd_pr__nfet_01v8 ad=0.097 pd=0.975 as=0.1092 ps=1.36 w=0.42 l=0.15
X24 a_1576_42282# a_1755_42282# VSS.t97 VSS.t96 sky130_fd_pr__nfet_01v8 ad=0.1092 pd=1.36 as=0.097 ps=0.975 w=0.42 l=0.15
X25 a_10933_46660# a_10554_47026# a_10861_46660# VSS.t101 sky130_fd_pr__nfet_01v8 ad=0.1401 pd=1.1 as=0.0441 ps=0.63 w=0.42 l=0.15
X26 a_14021_43940.t0 a_13483_43940# VDD.t278 VDD.t277 sky130_fd_pr__pfet_01v8_hvt ad=0.26 pd=2.52 as=0.155 ps=1.31 w=1 l=0.15
X27 a_16867_43762# a_16327_47482.t43 VDD.t3358 VDD.t3357 sky130_fd_pr__pfet_01v8_hvt ad=0.1092 pd=1.36 as=0.07035 ps=0.755 w=0.42 l=0.15
X28 VREF.t1 a_21076_30879.t4 C8_N_btm.t1 VDD.t3554 sky130_fd_pr__pfet_01v8_lvt ad=1.16 pd=8.29 as=1.16 ps=8.29 w=8 l=0.35
X29 VSS.t111 a_n2946_37690# a_n3565_37414.t7 VSS.t110 sky130_fd_pr__nfet_01v8 ad=0.08775 pd=0.92 as=0.08775 ps=0.92 w=0.65 l=0.15
X30 a_n913_45002.t11 a_1307_43914.t8 a_2075_43172# VSS.t3483 sky130_fd_pr__nfet_01v8 ad=0.08775 pd=0.92 as=0.08775 ps=0.92 w=0.65 l=0.15
X31 a_n2840_43370# a_n2661_43370.t3 VSS.t2821 VSS.t1732 sky130_fd_pr__nfet_01v8 ad=0.1092 pd=1.36 as=0.097 ps=0.975 w=0.42 l=0.15
X32 a_3457_43396# a_584_46384.t8 VSS.t2773 VSS.t2772 sky130_fd_pr__nfet_01v8 ad=0.091 pd=0.93 as=0.12675 ps=1.04 w=0.65 l=0.15
X33 a_14180_46482# a_14035_46660# VSS.t117 VSS.t116 sky130_fd_pr__nfet_01v8 ad=0.066 pd=0.745 as=0.2205 ps=1.89 w=0.42 l=0.15
X34 VSS.t119 a_18989_43940# a_19006_44850# VSS.t118 sky130_fd_pr__nfet_01v8 ad=0.2205 pd=1.89 as=0.066 ps=0.745 w=0.42 l=0.15
X35 VSS.t121 a_9672_43914# a_2107_46812.t1 VSS.t120 sky130_fd_pr__nfet_01v8 ad=0.112125 pd=0.995 as=0.17225 ps=1.83 w=0.65 l=0.15
X36 a_n1059_45260.t7 a_17499_43370# VSS.t129 VSS.t128 sky130_fd_pr__nfet_01v8 ad=0.08775 pd=0.92 as=0.08775 ps=0.92 w=0.65 l=0.15
X37 a_n1696_34930.t7 a_n1794_35082.t4 VSS.t2837 VSS.t2836 sky130_fd_pr__nfet_01v8 ad=0.08775 pd=0.92 as=0.08775 ps=0.92 w=0.65 l=0.15
X38 VSS.t133 a_10695_43548# a_10057_43914# VSS.t132 sky130_fd_pr__nfet_01v8 ad=0.08775 pd=0.92 as=0.221 ps=1.98 w=0.65 l=0.15
X39 a_n2104_42282# a_n1925_42282.t3 VSS.t2835 VSS.t2834 sky130_fd_pr__nfet_01v8 ad=0.1092 pd=1.36 as=0.097 ps=0.975 w=0.42 l=0.15
X40 a_20749_43396# a_12549_44172.t30 a_743_42282.t1 VSS.t2722 sky130_fd_pr__nfet_01v8 ad=0.091 pd=0.93 as=0.091 ps=0.93 w=0.65 l=0.15
X41 VDD.t318 a_3877_44458# a_2382_45260# VDD.t317 sky130_fd_pr__pfet_01v8_hvt ad=0.26 pd=2.52 as=0.135 ps=1.27 w=1 l=0.15
X42 a_n1699_44726# a_n1917_44484# VSS.t157 VSS.t156 sky130_fd_pr__nfet_01v8 ad=0.0999 pd=0.985 as=0.1346 ps=1.15 w=0.64 l=0.15
X43 VSS.t162 a_n4334_39616# a_n4064_39616.t7 VSS.t161 sky130_fd_pr__nfet_01v8 ad=0.091 pd=0.93 as=0.091 ps=0.93 w=0.65 l=0.15
X44 a_9241_45822# a_5066_45546# VDD.t344 VDD.t343 sky130_fd_pr__pfet_01v8_hvt ad=0.105 pd=1.21 as=0.26 ps=2.52 w=1 l=0.15
X45 VDD.t346 a_12883_44458# a_n2293_43922.t0 VDD.t345 sky130_fd_pr__pfet_01v8_hvt ad=0.26 pd=2.52 as=0.135 ps=1.27 w=1 l=0.15
X46 a_11909_44484# a_3232_43370.t17 a_11827_44484# VSS.t2828 sky130_fd_pr__nfet_01v8 ad=0.08775 pd=0.92 as=0.169 ps=1.82 w=0.65 l=0.15
X47 a_835_46155# a_584_46384.t21 a_376_46348# VDD.t3008 sky130_fd_pr__pfet_01v8_hvt ad=0.0441 pd=0.63 as=0.1932 ps=1.34 w=0.42 l=0.15
X48 VSS.t2714 a_1666_39043.t3 a_1169_39043# VSS.t1799 sky130_fd_pr__nfet_01v8 ad=0.169 pd=1.82 as=0.169 ps=1.82 w=0.65 l=0.15
X49 a_5210_46155# a_5164_46348# VDD.t360 VDD.t359 sky130_fd_pr__pfet_01v8_hvt ad=0.07665 pd=0.785 as=0.15835 ps=1.395 w=0.42 l=0.15
X50 VDD.t364 a_n3690_39392# a_n3420_39072.t2 VDD.t363 sky130_fd_pr__pfet_01v8_hvt ad=0.14 pd=1.28 as=0.14 ps=1.28 w=1 l=0.15
X51 VDD.t374 a_167_45260# a_1609_45822# VDD.t373 sky130_fd_pr__pfet_01v8_hvt ad=0.26 pd=2.52 as=0.135 ps=1.27 w=1 l=0.15
X52 VSS.t3413 a_526_44458.t33 a_3363_44484# VSS.t3412 sky130_fd_pr__nfet_01v8 ad=0.08775 pd=0.92 as=0.169 ps=1.82 w=0.65 l=0.15
X53 a_19268_43646# a_19319_43548# a_19095_43396# VSS.t213 sky130_fd_pr__nfet_01v8 ad=0.169 pd=1.82 as=0.10075 ps=0.96 w=0.65 l=0.15
X54 VSS.t219 a_22959_44484# a_19237_31679.t3 VSS.t218 sky130_fd_pr__nfet_01v8 ad=0.17225 pd=1.83 as=0.08775 ps=0.92 w=0.65 l=0.15
X55 a_n2216_39072# a_n2312_39304.t4 a_n2302_39072# VDD.t2877 sky130_fd_pr__pfet_01v8_hvt ad=0.105 pd=1.21 as=0.28 ps=2.56 w=1 l=0.15
X56 a_19987_42826# a_10193_42453.t13 VDD.t3022 VDD.t3021 sky130_fd_pr__pfet_01v8_hvt ad=0.26 pd=2.52 as=0.15 ps=1.3 w=1 l=0.15
X57 a_6151_47436.t0 a_14311_47204# VDD.t410 VDD.t409 sky130_fd_pr__pfet_01v8_hvt ad=0.2054 pd=2.1 as=0.11455 ps=1.08 w=0.79 l=0.15
X58 a_8145_46902# a_7927_46660# VDD.t412 VDD.t411 sky130_fd_pr__pfet_01v8_hvt ad=0.12915 pd=1.185 as=0.2184 ps=2.2 w=0.84 l=0.15
X59 VCM.t2 a_4190_30871.t15 C10_N_btm.t0 VSS.t2813 sky130_fd_pr__nfet_01v8_lvt ad=1.32 pd=8.33 as=1.32 ps=8.33 w=8 l=0.15
X60 a_14275_46494# a_13925_46122# a_14180_46482# VDD.t994 sky130_fd_pr__pfet_01v8_hvt ad=0.07245 pd=0.765 as=0.0651 ps=0.73 w=0.42 l=0.15
X61 a_20512_43084# a_11967_42832.t48 VSS.t2943 VSS.t2942 sky130_fd_pr__nfet_01v8 ad=0.08775 pd=0.92 as=0.169 ps=1.82 w=0.65 l=0.15
X62 a_14539_43914# a_17701_42308# VSS.t814 VSS.t813 sky130_fd_pr__nfet_01v8 ad=0.08775 pd=0.92 as=0.08775 ps=0.92 w=0.65 l=0.15
X63 a_6298_44484# a_2324_44458.t46 VSS.t3007 VSS.t3006 sky130_fd_pr__nfet_01v8 ad=0.0588 pd=0.7 as=0.1113 ps=1.37 w=0.42 l=0.15
X64 a_644_44056# a_626_44172# VSS.t855 VSS.t854 sky130_fd_pr__nfet_01v8 ad=0.0567 pd=0.69 as=0.1092 ps=1.36 w=0.42 l=0.15
X65 a_10949_43914# a_12429_44172# VDD.t1041 VDD.t1040 sky130_fd_pr__pfet_01v8_hvt ad=0.195 pd=1.39 as=0.28 ps=2.56 w=1 l=0.15
X66 VSS.t861 a_n2302_39866# a_n4209_39590.t7 VSS.t220 sky130_fd_pr__nfet_01v8 ad=0.08775 pd=0.92 as=0.08775 ps=0.92 w=0.65 l=0.15
X67 VSS.t865 a_21811_47423# a_20916_46384# VSS.t864 sky130_fd_pr__nfet_01v8 ad=0.0754 pd=0.81 as=0.1352 ps=1.56 w=0.52 l=0.15
X68 VDD.t1056 a_3699_46634# a_3686_47026# VDD.t1055 sky130_fd_pr__pfet_01v8_hvt ad=0.0819 pd=0.81 as=0.0567 ps=0.69 w=0.42 l=0.15
X69 VSS.t872 a_15682_46116# a_11599_46634.t28 VSS.t871 sky130_fd_pr__nfet_01v8 ad=0.0588 pd=0.7 as=0.0588 ps=0.7 w=0.42 l=0.15
X70 a_8035_47026# a_7411_46660# a_7927_46660# VDD.t1094 sky130_fd_pr__pfet_01v8_hvt ad=0.1155 pd=0.97 as=0.07245 ps=0.765 w=0.42 l=0.15
X71 a_5691_45260# a_5111_44636# a_5837_45348# VSS.t749 sky130_fd_pr__nfet_01v8 ad=0.169 pd=1.82 as=0.11375 ps=1 w=0.65 l=0.15
X72 VDD.t3542 a_1307_43914.t33 a_1241_43940# VDD.t3541 sky130_fd_pr__pfet_01v8_hvt ad=0.26 pd=2.52 as=0.165 ps=1.33 w=1 l=0.15
X73 a_5088_37509.t14 VDAC_P.t17 a_8912_37509.t3 VDD.t70 sky130_fd_pr__pfet_01v8 ad=0.87 pd=6.29 as=0.87 ps=6.29 w=6 l=0.2
X74 a_18249_42858# a_18083_42858# VSS.t923 VSS.t922 sky130_fd_pr__nfet_01v8 ad=0.1092 pd=1.36 as=0.0567 ps=0.69 w=0.42 l=0.15
X75 VDD.t1126 a_104_43370# a_n971_45724.t0 VDD.t1125 sky130_fd_pr__pfet_01v8_hvt ad=0.149 pd=1.325 as=0.135 ps=1.27 w=1 l=0.15
X76 VDD.t418 a_n2833_47464# CLK_DATA.t0 VDD.t417 sky130_fd_pr__pfet_01v8_hvt ad=0.14 pd=1.28 as=0.14 ps=1.28 w=1 l=0.15
X77 a_3363_44484# a_1823_45246# a_3232_43370.t4 VSS.t254 sky130_fd_pr__nfet_01v8 ad=0.169 pd=1.82 as=0.08775 ps=0.92 w=0.65 l=0.15
X78 a_n1331_43914# a_n1549_44318# VDD.t446 VDD.t445 sky130_fd_pr__pfet_01v8_hvt ad=0.12915 pd=1.185 as=0.2184 ps=2.2 w=0.84 l=0.15
X79 VCM.t34 a_4958_30871.t7 C9_P_btm.t7 VSS.t2695 sky130_fd_pr__nfet_01v8_lvt ad=1.32 pd=8.33 as=1.32 ps=8.33 w=8 l=0.15
X80 VSS.t3529 a_n3565_39590.t8 a_n3607_39616# VSS.t3521 sky130_fd_pr__nfet_01v8 ad=0.138125 pd=1.075 as=0.06825 ps=0.86 w=0.65 l=0.15
X81 VSS.t265 a_12281_43396# a_12563_42308# VSS.t264 sky130_fd_pr__nfet_01v8 ad=0.097 pd=0.975 as=0.1092 ps=1.36 w=0.42 l=0.15
X82 VSS.t271 a_18780_47178# a_13661_43548.t3 VSS.t270 sky130_fd_pr__nfet_01v8 ad=0.097 pd=0.975 as=0.08775 ps=0.92 w=0.65 l=0.15
X83 a_n4318_39768.t3 a_n2840_43914# VSS.t277 VSS.t276 sky130_fd_pr__nfet_01v8 ad=0.08775 pd=0.92 as=0.17225 ps=1.83 w=0.65 l=0.15
X84 DATA[5].t3 a_11459_47204# VDD.t466 VDD.t465 sky130_fd_pr__pfet_01v8_hvt ad=0.14 pd=1.28 as=0.165 ps=1.33 w=1 l=0.15
X85 a_7230_45938# a_6472_45840# a_6667_45809# VDD.t469 sky130_fd_pr__pfet_01v8_hvt ad=0.0651 pd=0.73 as=0.07245 ps=0.765 w=0.42 l=0.15
X86 VDD.t3100 a_8049_45260.t3 a_22959_45572# VDD.t3099 sky130_fd_pr__pfet_01v8_hvt ad=0.149 pd=1.325 as=0.1664 ps=1.8 w=0.64 l=0.15
X87 a_2324_44458.t22 a_8953_45002# VSS.t314 VSS.t313 sky130_fd_pr__nfet_01v8 ad=0.0588 pd=0.7 as=0.0588 ps=0.7 w=0.42 l=0.15
X88 a_8746_45002# a_7499_43078# VSS.t326 VSS.t325 sky130_fd_pr__nfet_01v8 ad=0.08775 pd=0.92 as=0.169 ps=1.82 w=0.65 l=0.15
X89 a_15004_44636# a_11691_44458.t4 a_15146_44484# VSS.t2885 sky130_fd_pr__nfet_01v8 ad=0.09975 pd=0.895 as=0.0693 ps=0.75 w=0.42 l=0.15
X90 a_16223_45938# a_15599_45572# a_16115_45572# VDD.t535 sky130_fd_pr__pfet_01v8_hvt ad=0.1155 pd=0.97 as=0.07245 ps=0.765 w=0.42 l=0.15
X91 a_n984_44318# a_n1899_43946# a_n1331_43914# VSS.t354 sky130_fd_pr__special_nfet_01v8 ad=0.0711 pd=0.755 as=0.0999 ps=0.985 w=0.36 l=0.15
X92 a_n809_44244# a_n1613_43370.t45 VDD.t3400 VDD.t3399 sky130_fd_pr__pfet_01v8_hvt ad=0.0567 pd=0.69 as=0.0819 ps=0.81 w=0.42 l=0.15
X93 a_n4064_39616.t6 a_n4334_39616# VSS.t164 VSS.t163 sky130_fd_pr__nfet_01v8 ad=0.091 pd=0.93 as=0.138125 ps=1.075 w=0.65 l=0.15
X94 a_17124_42282# a_17303_42282# VSS.t367 VSS.t366 sky130_fd_pr__nfet_01v8 ad=0.1092 pd=1.36 as=0.097 ps=0.975 w=0.42 l=0.15
X95 VDD.t1076 a_15682_46116# a_11599_46634.t2 VDD.t1075 sky130_fd_pr__pfet_01v8_hvt ad=0.14 pd=1.28 as=0.14 ps=1.28 w=1 l=0.15
X96 VSS.t373 a_3065_45002# a_2680_45002# VSS.t372 sky130_fd_pr__nfet_01v8 ad=0.208 pd=1.94 as=0.10725 ps=0.98 w=0.65 l=0.15
X97 a_5193_42852# a_5111_44636# VDD.t1106 VDD.t1105 sky130_fd_pr__pfet_01v8_hvt ad=0.16 pd=1.32 as=0.2529 ps=2.52 w=1 l=0.15
X98 VDD.t568 a_6969_46634# a_6999_46987# VDD.t567 sky130_fd_pr__pfet_01v8_hvt ad=0.0693 pd=0.75 as=0.0441 ps=0.63 w=0.42 l=0.15
X99 VDD.t570 a_10623_46897# a_10554_47026# VDD.t569 sky130_fd_pr__pfet_01v8_hvt ad=0.2184 pd=2.2 as=0.12915 ps=1.185 w=0.84 l=0.15
X100 a_16137_43396# a_15781_43660# VDD.t4 VDD.t3 sky130_fd_pr__pfet_01v8_hvt ad=0.26 pd=2.52 as=0.142225 ps=1.335 w=1 l=0.15
X101 VDD.t576 a_n2472_46634# a_n2442_46660.t1 VDD.t575 sky130_fd_pr__pfet_01v8_hvt ad=0.149 pd=1.325 as=0.135 ps=1.27 w=1 l=0.15
X102 VDD.t1892 a_4185_45028.t3 a_22959_45036# VDD.t1891 sky130_fd_pr__pfet_01v8_hvt ad=0.149 pd=1.325 as=0.1664 ps=1.8 w=0.64 l=0.15
X103 a_15225_45822# a_15037_45618# a_15143_45578# VDD.t579 sky130_fd_pr__pfet_01v8_hvt ad=0.0441 pd=0.63 as=0.1092 ps=1.36 w=0.42 l=0.15
X104 VSS.t2672 a_3537_45260.t21 a_4640_45348# VSS.t2671 sky130_fd_pr__nfet_01v8 ad=0.10025 pd=0.985 as=0.08775 ps=0.92 w=0.65 l=0.15
X105 a_n2012_43396# a_n2129_43609# VDD.t583 VDD.t582 sky130_fd_pr__pfet_01v8_hvt ad=0.0651 pd=0.73 as=0.1092 ps=1.36 w=0.42 l=0.15
X106 VDD.t585 a_n13_43084# a_n1853_43023# VDD.t584 sky130_fd_pr__pfet_01v8_hvt ad=0.155 pd=1.31 as=0.26 ps=2.52 w=1 l=0.15
X107 a_5068_46348# a_n1151_42308.t4 a_5210_46155# VDD.t1880 sky130_fd_pr__pfet_01v8_hvt ad=0.1932 pd=1.34 as=0.07665 ps=0.785 w=0.42 l=0.15
X108 a_873_42968# a_685_42968# a_791_42968# VDD.t590 sky130_fd_pr__pfet_01v8_hvt ad=0.0441 pd=0.63 as=0.1092 ps=1.36 w=0.42 l=0.15
X109 a_17730_32519.t1 a_22591_44484# VDD.t594 VDD.t593 sky130_fd_pr__pfet_01v8_hvt ad=0.135 pd=1.27 as=0.149 ps=1.325 w=1 l=0.15
X110 a_11967_42832.t25 a_15682_43940# VSS.t440 VSS.t439 sky130_fd_pr__nfet_01v8 ad=0.0588 pd=0.7 as=0.0588 ps=0.7 w=0.42 l=0.15
X111 VDD.t630 a_22485_44484# a_20974_43370# VDD.t629 sky130_fd_pr__pfet_01v8_hvt ad=0.26 pd=2.52 as=0.135 ps=1.27 w=1 l=0.15
X112 a_n1021_46688# a_n1151_42308.t17 VDD.t1887 VDD.t1886 sky130_fd_pr__pfet_01v8_hvt ad=0.0567 pd=0.69 as=0.1176 ps=1.4 w=0.42 l=0.15
X113 VSS.t2961 a_11599_46634.t46 a_11735_46660# VSS.t2960 sky130_fd_pr__nfet_01v8 ad=0.0567 pd=0.69 as=0.1092 ps=1.36 w=0.42 l=0.15
X114 a_13163_45724# a_13259_45724.t21 VDD.t248 VDD.t247 sky130_fd_pr__pfet_01v8_hvt ad=0.06615 pd=0.735 as=0.14075 ps=1.325 w=0.42 l=0.15
X115 C9_P_btm.t5 a_4958_30871.t8 VCM.t35 VSS.t2696 sky130_fd_pr__nfet_01v8_lvt ad=1.32 pd=8.33 as=1.32 ps=8.33 w=8 l=0.15
X116 a_11599_46634.t29 a_15682_46116# VSS.t896 VSS.t895 sky130_fd_pr__nfet_01v8 ad=0.0588 pd=0.7 as=0.0588 ps=0.7 w=0.42 l=0.15
X117 a_n2012_44484# a_n2129_44697# VSS.t462 VSS.t461 sky130_fd_pr__nfet_01v8 ad=0.066 pd=0.745 as=0.2205 ps=1.89 w=0.42 l=0.15
X118 VIN_N.t3 EN_VIN_BSTR_N.t22 a_10890_34112.t1 VSS.t2927 sky130_fd_pr__nfet_01v8 ad=1.24 pd=8.62 as=0.66 ps=4.33 w=4 l=0.15
X119 a_13940_44484# a_13556_45296# VSS.t465 VSS.t464 sky130_fd_pr__nfet_01v8 ad=0.091 pd=0.93 as=0.26 ps=1.45 w=0.65 l=0.15
X120 VSS.t475 a_1414_42308# a_1525_44260# VSS.t474 sky130_fd_pr__nfet_01v8 ad=0.10725 pd=0.98 as=0.06825 ps=0.86 w=0.65 l=0.15
X121 a_8487_44056# a_4223_44672.t4 a_8415_44056# VDD.t2895 sky130_fd_pr__pfet_01v8_hvt ad=0.0693 pd=0.75 as=0.0441 ps=0.63 w=0.42 l=0.15
X122 VDAC_P.t3 a_3422_30871.t15 VCM.t53 VSS.t3516 sky130_fd_pr__nfet_01v8_lvt ad=1.32 pd=8.33 as=2.48 ps=16.62 w=8 l=0.15
X123 a_16434_46660# a_16388_46812# VSS.t477 VSS.t476 sky130_fd_pr__nfet_01v8 ad=0.0693 pd=0.75 as=0.11285 ps=1.045 w=0.42 l=0.15
X124 a_22613_38993# a_22527_39145# VDD.t661 VDD.t660 sky130_fd_pr__pfet_01v8_hvt ad=0.26 pd=2.52 as=0.26 ps=2.52 w=1 l=0.15
X125 a_3315_47570# a_n1151_42308.t13 a_2952_47436# VSS.t1660 sky130_fd_pr__nfet_01v8 ad=0.0693 pd=0.75 as=0.09975 ps=0.895 w=0.42 l=0.15
X126 a_2680_45002# a_1823_45246# a_2903_45348# VSS.t249 sky130_fd_pr__nfet_01v8 ad=0.10725 pd=0.98 as=0.10725 ps=0.98 w=0.65 l=0.15
X127 a_1307_43914.t1 a_2779_44458# VDD.t667 VDD.t666 sky130_fd_pr__pfet_01v8_hvt ad=0.14 pd=1.28 as=0.3 ps=2.6 w=1 l=0.15
X128 a_22731_47423# SMPL_ON_N.t8 VDD.t3573 VDD.t3572 sky130_fd_pr__pfet_01v8_hvt ad=0.2054 pd=2.1 as=0.11455 ps=1.08 w=0.79 l=0.15
X129 VDD.t3538 a_1307_43914.t31 a_3681_42891# VDD.t3537 sky130_fd_pr__pfet_01v8_hvt ad=0.0693 pd=0.75 as=0.1176 ps=1.4 w=0.42 l=0.15
X130 a_n863_45724# a_1667_45002# VSS.t499 VSS.t498 sky130_fd_pr__nfet_01v8 ad=0.0567 pd=0.69 as=0.1092 ps=1.36 w=0.42 l=0.15
X131 VDD.t464 a_11459_47204# DATA[5].t2 VDD.t463 sky130_fd_pr__pfet_01v8_hvt ad=0.14 pd=1.28 as=0.14 ps=1.28 w=1 l=0.15
X132 VSS.t307 a_8953_45002# a_2324_44458.t21 VSS.t306 sky130_fd_pr__nfet_01v8 ad=0.0588 pd=0.7 as=0.0588 ps=0.7 w=0.42 l=0.15
X133 a_4646_46812.t1 a_6298_44484# VDD.t1011 VDD.t1010 sky130_fd_pr__pfet_01v8_hvt ad=0.14 pd=1.28 as=0.14 ps=1.28 w=1 l=0.15
X134 VSS.t3157 VDD.t3826 VSS.t3156 VSS.t3155 sky130_fd_pr__nfet_01v8 ad=0.143 pd=1.62 as=0 ps=0 w=0.55 l=0.59
X135 VREF_GND.t10 a_18114_32519.t5 C10_N_btm.t25 VSS.t2648 sky130_fd_pr__nfet_01v8 ad=1.32 pd=8.33 as=1.32 ps=8.33 w=8 l=0.15
X136 a_n4209_38216.t3 a_n2302_37984# VDD.t709 VDD.t708 sky130_fd_pr__pfet_01v8_hvt ad=0.135 pd=1.27 as=0.1775 ps=1.355 w=1 l=0.15
X137 a_10467_46802# a_11599_46634.t45 VDD.t3163 VDD.t3162 sky130_fd_pr__pfet_01v8_hvt ad=0.1664 pd=1.8 as=0.0864 ps=0.91 w=0.64 l=0.15
X138 VDD.t3083 a_13747_46662.t3 a_19862_44208# VDD.t3082 sky130_fd_pr__pfet_01v8_hvt ad=0.26 pd=2.52 as=0.135 ps=1.27 w=1 l=0.15
X139 a_n2946_39866# a_n2956_39768.t4 VSS.t2871 VSS.t1734 sky130_fd_pr__nfet_01v8 ad=0.08775 pd=0.92 as=0.169 ps=1.82 w=0.65 l=0.15
X140 a_n1013_45572# a_n1079_45724# a_n1099_45572# VSS.t542 sky130_fd_pr__nfet_01v8 ad=0.125125 pd=1.035 as=0.182 ps=1.86 w=0.65 l=0.15
X141 VSS.t546 a_15279_43071# a_14579_43548# VSS.t545 sky130_fd_pr__nfet_01v8 ad=0.0754 pd=0.81 as=0.1352 ps=1.56 w=0.52 l=0.15
X142 DATA[3].t3 a_7227_47204# VDD.t735 VDD.t734 sky130_fd_pr__pfet_01v8_hvt ad=0.14 pd=1.28 as=0.14 ps=1.28 w=1 l=0.15
X143 VSS.t2877 a_8049_45260.t4 a_22959_45572# VSS.t1665 sky130_fd_pr__nfet_01v8 ad=0.097 pd=0.975 as=0.1092 ps=1.36 w=0.42 l=0.15
X144 a_7584_44260# a_7542_44172# a_7281_43914# VSS.t557 sky130_fd_pr__nfet_01v8 ad=0.091 pd=0.93 as=0.089375 ps=0.925 w=0.65 l=0.15
X145 a_n97_42460.t3 a_19700_43370# VSS.t561 VSS.t560 sky130_fd_pr__nfet_01v8 ad=0.08775 pd=0.92 as=0.17225 ps=1.83 w=0.65 l=0.15
X146 VDD.t262 a_19647_42308# a_13258_32519.t1 VDD.t261 sky130_fd_pr__pfet_01v8_hvt ad=0.265 pd=2.53 as=0.135 ps=1.27 w=1 l=0.15
X147 a_3754_39466# a_7754_39300# VSS.t564 sky130_fd_pr__res_high_po_0p35 l=18
X148 VSS.t485 a_2952_47436# a_2747_46873# VSS.t484 sky130_fd_pr__nfet_01v8 ad=0.11285 pd=1.045 as=0.169 ps=1.82 w=0.65 l=0.15
X149 VDD.t751 a_16751_45260# a_6171_45002.t0 VDD.t750 sky130_fd_pr__pfet_01v8_hvt ad=0.14825 pd=1.34 as=0.275 ps=2.55 w=1 l=0.15
X150 a_18326_43940# a_18079_43940# VDD.t753 VDD.t752 sky130_fd_pr__pfet_01v8_hvt ad=0.26 pd=2.52 as=0.14075 ps=1.325 w=1 l=0.15
X151 a_9248_44260# a_8270_45546# VSS.t574 VSS.t573 sky130_fd_pr__nfet_01v8 ad=0.091 pd=0.93 as=0.26 ps=1.45 w=0.65 l=0.15
X152 a_3503_45724# a_3775_45552# a_3733_45822# VDD.t759 sky130_fd_pr__pfet_01v8_hvt ad=0.1092 pd=1.36 as=0.0441 ps=0.63 w=0.42 l=0.15
X153 a_n2017_45002.t1 a_19987_42826# VDD.t408 VDD.t407 sky130_fd_pr__pfet_01v8_hvt ad=0.135 pd=1.27 as=0.32 ps=2.64 w=1 l=0.15
X154 a_288_46660# a_171_46873# VSS.t584 VSS.t583 sky130_fd_pr__nfet_01v8 ad=0.066 pd=0.745 as=0.2205 ps=1.89 w=0.42 l=0.15
X155 a_10037_46155# a_9804_47204# a_9823_46155# VDD.t764 sky130_fd_pr__pfet_01v8_hvt ad=0.07665 pd=0.785 as=0.1932 ps=1.34 w=0.42 l=0.15
X156 a_20075_46420# a_16327_47482.t29 VDD.t3425 VDD.t3424 sky130_fd_pr__pfet_01v8_hvt ad=0.0567 pd=0.69 as=0.0819 ps=0.81 w=0.42 l=0.15
X157 VDD.t774 a_196_42282# a_n3674_37592.t1 VDD.t773 sky130_fd_pr__pfet_01v8_hvt ad=0.149 pd=1.325 as=0.135 ps=1.27 w=1 l=0.15
X158 VSS.t597 a_14513_46634# a_14447_46660# VSS.t596 sky130_fd_pr__nfet_01v8 ad=0.1449 pd=1.11 as=0.0693 ps=0.75 w=0.42 l=0.15
X159 a_n4064_39072.t3 a_n4334_39392# VDD.t782 VDD.t781 sky130_fd_pr__pfet_01v8_hvt ad=0.14 pd=1.28 as=0.14 ps=1.28 w=1 l=0.15
X160 a_1149_42558# a_961_42354# a_1067_42314# VDD.t785 sky130_fd_pr__pfet_01v8_hvt ad=0.0441 pd=0.63 as=0.1092 ps=1.36 w=0.42 l=0.15
X161 a_13569_47204# a_13381_47204# a_13487_47204# VDD.t788 sky130_fd_pr__pfet_01v8_hvt ad=0.19 pd=1.38 as=0.26 ps=2.52 w=1 l=0.15
X162 VDD.t798 a_14840_46494# a_15015_46420# VDD.t797 sky130_fd_pr__pfet_01v8_hvt ad=0.1134 pd=1.38 as=0.0567 ps=0.69 w=0.42 l=0.15
X163 C6_P_btm.t2 a_n3565_39304.t8 VREF.t65 VDD.t3604 sky130_fd_pr__pfet_01v8_lvt ad=2.32 pd=16.58 as=1.16 ps=8.29 w=8 l=0.35
X164 VDD.t223 VSS.t3764 VDD.t222 VDD.t221 sky130_fd_pr__pfet_01v8_hvt ad=0.2262 pd=2.26 as=0 ps=0 w=0.87 l=1.05
X165 a_2324_44458.t20 a_8953_45002# VSS.t297 VSS.t296 sky130_fd_pr__nfet_01v8 ad=0.0588 pd=0.7 as=0.1113 ps=1.37 w=0.42 l=0.15
X166 a_14537_43396# a_14358_43442# VSS.t620 VSS.t619 sky130_fd_pr__nfet_01v8 ad=0.221 pd=1.98 as=0.08775 ps=0.92 w=0.65 l=0.15
X167 VDD.t809 a_14955_47212# a_10227_46804.t0 VDD.t808 sky130_fd_pr__pfet_01v8_hvt ad=0.265 pd=2.53 as=0.135 ps=1.27 w=1 l=0.15
X168 VDD.t3589 a_7754_40130.t9 a_11206_38545.t3 VDD.t3588 sky130_fd_pr__pfet_01v8 ad=2.32 pd=16.58 as=2.32 ps=16.58 w=8 l=0.5
X169 a_n3565_39590.t1 a_n2946_39866# VDD.t722 VDD.t721 sky130_fd_pr__pfet_01v8_hvt ad=0.135 pd=1.27 as=0.135 ps=1.27 w=1 l=0.15
X170 a_n901_43156# a_n1613_43370.t23 VDD.t3374 VDD.t3373 sky130_fd_pr__pfet_01v8_hvt ad=0.0567 pd=0.69 as=0.0819 ps=0.81 w=0.42 l=0.15
X171 a_17668_45572# a_3090_45724.t6 VSS.t1583 VSS.t1582 sky130_fd_pr__nfet_01v8 ad=0.169 pd=1.82 as=0.105625 ps=0.975 w=0.65 l=0.15
X172 a_n2438_43548.t29 a_949_44458# VSS.t19 VSS.t18 sky130_fd_pr__nfet_01v8 ad=0.0588 pd=0.7 as=0.0588 ps=0.7 w=0.42 l=0.15
X173 a_15493_43396.t1 a_14955_43396# VSS.t641 VSS.t640 sky130_fd_pr__nfet_01v8 ad=0.169 pd=1.82 as=0.196275 ps=1.33 w=0.65 l=0.15
X174 a_7309_43172# a_5891_43370.t8 VSS.t1649 VSS.t1648 sky130_fd_pr__nfet_01v8 ad=0.07475 pd=0.88 as=0.169 ps=1.82 w=0.65 l=0.15
X175 VDD.t825 a_1138_42852# a_1337_46116# VDD.t824 sky130_fd_pr__pfet_01v8_hvt ad=0.165 pd=1.33 as=0.16 ps=1.32 w=1 l=0.15
X176 a_1427_43646# a_1568_43370# VDD.t827 VDD.t826 sky130_fd_pr__pfet_01v8_hvt ad=0.265 pd=2.53 as=0.14 ps=1.28 w=1 l=0.15
X177 a_18184_42460.t0 a_15743_43084# VSS.t650 VSS.t649 sky130_fd_pr__nfet_01v8 ad=0.08775 pd=0.92 as=0.169 ps=1.82 w=0.65 l=0.15
X178 VDD.t837 a_13351_46090# a_10903_43370.t1 VDD.t836 sky130_fd_pr__pfet_01v8_hvt ad=0.1625 pd=1.325 as=0.135 ps=1.27 w=1 l=0.15
X179 a_8379_46155# a_8128_46384# a_7920_46348# VDD.t840 sky130_fd_pr__pfet_01v8_hvt ad=0.0441 pd=0.63 as=0.1932 ps=1.34 w=0.42 l=0.15
X180 VSS.t3081 a_3483_46348.t13 a_17325_44484# VSS.t3080 sky130_fd_pr__nfet_01v8 ad=0.10075 pd=0.96 as=0.11375 ps=1 w=0.65 l=0.15
X181 VDD.t3279 a_9290_44172.t28 a_10949_43914# VDD.t3278 sky130_fd_pr__pfet_01v8_hvt ad=0.14575 pd=1.335 as=0.135 ps=1.27 w=1 l=0.15
X182 VSS.t3543 a_11823_42460.t21 a_14358_43442# VSS.t3542 sky130_fd_pr__nfet_01v8 ad=0.10025 pd=0.985 as=0.1092 ps=1.36 w=0.42 l=0.15
X183 a_18310_42308# a_10193_42453.t21 a_18220_42308# VSS.t2797 sky130_fd_pr__nfet_01v8 ad=0.14625 pd=1.1 as=0.0975 ps=0.95 w=0.65 l=0.15
X184 VDD.t846 a_n2288_47178# a_n2312_40392.t1 VDD.t845 sky130_fd_pr__pfet_01v8_hvt ad=0.149 pd=1.325 as=0.135 ps=1.27 w=1 l=0.15
X185 a_17719_45144# a_16375_45002# VSS.t666 VSS.t665 sky130_fd_pr__nfet_01v8 ad=0.0567 pd=0.69 as=0.0567 ps=0.69 w=0.42 l=0.15
X186 VDD.t1816 a_5891_43370.t23 a_5147_45002# VDD.t1815 sky130_fd_pr__pfet_01v8_hvt ad=0.26 pd=2.52 as=0.135 ps=1.27 w=1 l=0.15
X187 a_7287_43370# a_n1613_43370.t43 VDD.t3398 VDD.t3397 sky130_fd_pr__pfet_01v8_hvt ad=0.0567 pd=0.69 as=0.0819 ps=0.81 w=0.42 l=0.15
X188 a_11173_44260# a_2063_45854.t11 VSS.t1642 VSS.t1641 sky130_fd_pr__nfet_01v8 ad=0.08775 pd=0.92 as=0.169 ps=1.82 w=0.65 l=0.15
X189 a_11897_42308# a_11823_42460.t27 a_11551_42558# VSS.t3548 sky130_fd_pr__nfet_01v8 ad=0.11375 pd=1 as=0.169 ps=1.82 w=0.65 l=0.15
X190 VDD.t3199 a_12861_44030.t33 a_13759_47204# VDD.t3198 sky130_fd_pr__pfet_01v8_hvt ad=0.19 pd=1.38 as=0.135 ps=1.27 w=1 l=0.15
X191 a_19466_46812# a_19778_44110# VSS.t688 VSS.t687 sky130_fd_pr__nfet_01v8 ad=0.08775 pd=0.92 as=0.169 ps=1.82 w=0.65 l=0.15
X192 a_9049_44484# a_8701_44490# VSS.t695 VSS.t694 sky130_fd_pr__nfet_01v8 ad=0.182 pd=1.86 as=0.101875 ps=0.99 w=0.65 l=0.15
X193 a_n3565_38502.t7 a_n2946_38778# VSS.t700 VSS.t699 sky130_fd_pr__nfet_01v8 ad=0.08775 pd=0.92 as=0.08775 ps=0.92 w=0.65 l=0.15
X194 VDD.t887 a_16588_47582# a_16763_47508# VDD.t886 sky130_fd_pr__pfet_01v8_hvt ad=0.1134 pd=1.38 as=0.0567 ps=0.69 w=0.42 l=0.15
X195 a_9396_43370# a_4883_46098.t3 VSS.t1631 VSS.t1630 sky130_fd_pr__nfet_01v8 ad=0.1092 pd=1.36 as=0.097 ps=0.975 w=0.42 l=0.15
X196 C0_P_btm.t1 a_n784_42308.t4 VCM.t60 VSS.t3530 sky130_fd_pr__nfet_01v8_lvt ad=0.62 pd=4.62 as=0.62 ps=4.62 w=2 l=0.15
X197 a_n1736_42282# a_n1557_42282# VSS.t46 VSS.t45 sky130_fd_pr__nfet_01v8 ad=0.1092 pd=1.36 as=0.097 ps=0.975 w=0.42 l=0.15
X198 VDD.t903 a_14113_42308# a_16522_42674# VDD.t902 sky130_fd_pr__pfet_01v8_hvt ad=0.1092 pd=1.36 as=0.0651 ps=0.73 w=0.42 l=0.15
X199 a_10651_43940# a_3090_45724.t19 a_10555_43940# VDD.t1823 sky130_fd_pr__pfet_01v8_hvt ad=0.195 pd=1.39 as=0.165 ps=1.33 w=1 l=0.15
X200 VDD.t907 a_8667_46634# a_n237_47217.t0 VDD.t906 sky130_fd_pr__pfet_01v8_hvt ad=0.26 pd=2.52 as=0.135 ps=1.27 w=1 l=0.15
X201 a_6123_31319.t3 a_7227_42308# VSS.t729 VSS.t728 sky130_fd_pr__nfet_01v8 ad=0.08775 pd=0.92 as=0.097 ps=0.975 w=0.65 l=0.15
X202 a_7499_43078# a_10083_42826# VSS.t732 VSS.t731 sky130_fd_pr__nfet_01v8 ad=0.08775 pd=0.92 as=0.08775 ps=0.92 w=0.65 l=0.15
X203 VSS.t3388 a_n755_45592.t25 a_1145_45348# VSS.t3387 sky130_fd_pr__nfet_01v8 ad=0.169 pd=1.82 as=0.08775 ps=0.92 w=0.65 l=0.15
X204 C7_P_btm.t1 a_5534_30871.t4 VCM.t40 VSS.t3025 sky130_fd_pr__nfet_01v8_lvt ad=2.48 pd=16.62 as=1.32 ps=8.33 w=8 l=0.15
X205 VREF.t27 a_22612_30879.t19 C10_N_btm.t23 VDD.t1954 sky130_fd_pr__pfet_01v8_lvt ad=1.16 pd=8.29 as=1.16 ps=8.29 w=8 l=0.35
X206 VSS.t3024 a_n4064_37984.t8 a_n2302_37984# VSS.t1787 sky130_fd_pr__nfet_01v8 ad=0.115375 pd=1.005 as=0.08775 ps=0.92 w=0.65 l=0.15
X207 VSS.t17 a_949_44458# a_n2438_43548.t24 VSS.t16 sky130_fd_pr__nfet_01v8 ad=0.0588 pd=0.7 as=0.0588 ps=0.7 w=0.42 l=0.15
X208 a_3581_42558# a_3539_42460# a_3497_42558# VDD.t924 sky130_fd_pr__pfet_01v8_hvt ad=0.135 pd=1.27 as=0.135 ps=1.27 w=1 l=0.15
X209 a_n3674_38680.t1 a_n2840_42282# VDD.t926 VDD.t925 sky130_fd_pr__pfet_01v8_hvt ad=0.135 pd=1.27 as=0.265 ps=2.53 w=1 l=0.15
X210 VSS.t752 a_5907_45546# a_5937_45572.t2 VSS.t751 sky130_fd_pr__nfet_01v8 ad=0.2087 pd=2.02 as=0.08775 ps=0.92 w=0.65 l=0.15
X211 VDD.t937 a_22589_40055# a_22527_39145# VDD.t936 sky130_fd_pr__pfet_01v8_hvt ad=0.26 pd=2.52 as=0.26 ps=2.52 w=1 l=0.15
X212 a_18783_43370# a_15743_43084# VSS.t648 VSS.t647 sky130_fd_pr__nfet_01v8 ad=0.1092 pd=1.36 as=0.0567 ps=0.69 w=0.42 l=0.15
X213 VSS.t758 a_1799_45572# a_1983_46706# VSS.t757 sky130_fd_pr__nfet_01v8 ad=0.10025 pd=0.985 as=0.1092 ps=1.36 w=0.42 l=0.15
X214 VDD.t947 a_22959_46660# a_21076_30879.t1 VDD.t946 sky130_fd_pr__pfet_01v8_hvt ad=0.265 pd=2.53 as=0.135 ps=1.27 w=1 l=0.15
X215 a_13467_32519.t1 a_21487_43396# VDD.t949 VDD.t948 sky130_fd_pr__pfet_01v8_hvt ad=0.135 pd=1.27 as=0.149 ps=1.325 w=1 l=0.15
X216 C10_P_btm.t14 a_n4064_40160.t11 VREF_GND.t37 VSS.t2684 sky130_fd_pr__nfet_01v8 ad=1.32 pd=8.33 as=1.32 ps=8.33 w=8 l=0.15
X217 a_2864_46660# a_2747_46873# VSS.t566 VSS.t565 sky130_fd_pr__nfet_01v8 ad=0.066 pd=0.745 as=0.2205 ps=1.89 w=0.42 l=0.15
X218 VDD.t179 VSS.t3752 VDD.t178 VDD.t177 sky130_fd_pr__pfet_01v8_hvt ad=0.2262 pd=2.26 as=0 ps=0 w=0.87 l=0.59
X219 a_8199_44636# a_10355_46116# VSS.t769 VSS.t768 sky130_fd_pr__nfet_01v8 ad=0.0567 pd=0.69 as=0.06825 ps=0.745 w=0.42 l=0.15
X220 a_14403_45348# a_13259_45724.t15 a_14309_45348# VSS.t74 sky130_fd_pr__nfet_01v8 ad=0.10725 pd=0.98 as=0.104 ps=0.97 w=0.65 l=0.15
X221 a_556_44484# a_742_44458# VSS.t789 VSS.t788 sky130_fd_pr__nfet_01v8 ad=0.17225 pd=1.83 as=0.12675 ps=1.04 w=0.65 l=0.15
X222 VSS.t795 a_15433_44458# a_15367_44484# VSS.t794 sky130_fd_pr__nfet_01v8 ad=0.1449 pd=1.11 as=0.0693 ps=0.75 w=0.42 l=0.15
X223 a_n1794_35082.t0 a_564_42282# VDD.t982 VDD.t981 sky130_fd_pr__pfet_01v8_hvt ad=0.135 pd=1.27 as=0.265 ps=2.53 w=1 l=0.15
X224 a_n2840_43370# a_n2661_43370.t4 VDD.t3035 VDD.t1762 sky130_fd_pr__pfet_01v8_hvt ad=0.1664 pd=1.8 as=0.149 ps=1.325 w=0.64 l=0.15
X225 w_1575_34786.t7 a_n1696_34930.t10 EN_VIN_BSTR_P.t6 w_1575_34786.t6 sky130_fd_pr__pfet_01v8 ad=0.66 pd=4.33 as=0.66 ps=4.33 w=4 l=0.15
X226 VSS.t2864 a_13747_46662.t7 a_13693_46688# VSS.t2863 sky130_fd_pr__nfet_01v8 ad=0.1118 pd=1.04 as=0.0567 ps=0.69 w=0.42 l=0.15
X227 a_18245_44484# a_17767_44458# VSS.t803 VSS.t802 sky130_fd_pr__nfet_01v8 ad=0.0669 pd=0.75 as=0.12495 ps=1.015 w=0.42 l=0.15
X228 a_19741_43940# a_19862_44208# VDD.t715 VDD.t714 sky130_fd_pr__pfet_01v8_hvt ad=0.1092 pd=1.36 as=0.0567 ps=0.69 w=0.42 l=0.15
X229 a_16855_43396# a_16409_43396# a_16759_43396# VSS.t804 sky130_fd_pr__special_nfet_01v8 ad=0.1401 pd=1.1 as=0.0594 ps=0.69 w=0.36 l=0.15
X230 a_13113_42826# a_12895_43230# VSS.t1316 VSS.t1315 sky130_fd_pr__nfet_01v8 ad=0.0999 pd=0.985 as=0.1346 ps=1.15 w=0.64 l=0.15
X231 VSS.t1319 a_22365_46825# a_20202_43084# VSS.t1318 sky130_fd_pr__nfet_01v8 ad=0.0754 pd=0.81 as=0.1352 ps=1.56 w=0.52 l=0.15