* SPICE3 file created from SAR_ADC_12bit_flat.ext - technology: sky130A

.subckt SAR_ADC_12bit VDD VCM VSS VREF VIN_P VIN_N RST_Z CLK_DATA DATA[5] DATA[4] DATA[3] DATA[2] DATA[1] DATA[0] START
+ EN_OFFSET_CAL CLK VREF_GND SINGLE_ENDED
X0 a_13076_44458# a_13259_45724# a_13296_44484# VSS sky130_fd_pr__nfet_01v8 ad=0.091 pd=0.93 as=0.091 ps=0.93 w=0.65 l=0.15
X1 a_8912_37509# VDAC_P a_5088_37509# VDD sky130_fd_pr__pfet_01v8 ad=0.87 pd=6.29 as=0.87 ps=6.29 w=6 l=0.2
X2 VSS a_12427_45724# a_10490_45724# VSS sky130_fd_pr__nfet_01v8 ad=0.1034 pd=1 as=0.169 ps=1.82 w=0.65 l=0.15
X3 VDD a_2324_44458# a_949_44458# VDD sky130_fd_pr__pfet_01v8_hvt ad=0.14 pd=1.28 as=0.14 ps=1.28 w=1 l=0.15
X4 VDD VSS VDD VDD sky130_fd_pr__pfet_01v8_hvt ad=0.2262 pd=2.26 as=361.8427 ps=3.23168k w=0.87 l=2.89
X5 VDD CAL_N VDD VDD sky130_fd_pr__pfet_01v8_lvt ad=1.45 pd=10.29 as=0 ps=0 w=10 l=10
X6 a_5088_37509# VDAC_P a_8912_37509# VDD sky130_fd_pr__pfet_01v8 ad=0.87 pd=6.29 as=0.87 ps=6.29 w=6 l=0.2
X7 VDD a_2903_42308# a_3080_42308# VDD sky130_fd_pr__pfet_01v8_hvt ad=0.265 pd=2.53 as=0.135 ps=1.27 w=1 l=0.15
X8 VDD a_12861_44030# a_17829_46910# VDD sky130_fd_pr__pfet_01v8_hvt ad=0.135 pd=1.27 as=0.135 ps=1.27 w=1 l=0.15
X9 VSS a_1209_43370# a_n1557_42282# VSS sky130_fd_pr__nfet_01v8 ad=0.25675 pd=1.44 as=0.169 ps=1.82 w=0.65 l=0.15
X10 a_16237_45028# a_16147_45260# a_16019_45002# VDD sky130_fd_pr__pfet_01v8_hvt ad=0.135 pd=1.27 as=0.26 ps=2.52 w=1 l=0.15
X11 a_2075_43172# a_526_44458# VSS VSS sky130_fd_pr__nfet_01v8 ad=0.08775 pd=0.92 as=0.08775 ps=0.92 w=0.65 l=0.15
X12 VDD a_n755_45592# a_1176_45822# VDD sky130_fd_pr__pfet_01v8_hvt ad=0.1925 pd=1.385 as=0.135 ps=1.27 w=1 l=0.15
X13 a_6756_44260# a_5937_45572# a_6453_43914# VSS sky130_fd_pr__nfet_01v8 ad=0.091 pd=0.93 as=0.089375 ps=0.925 w=0.65 l=0.15
X14 a_15868_43402# a_15681_43442# a_15781_43660# VSS sky130_fd_pr__nfet_01v8 ad=0.0441 pd=0.63 as=0.107825 ps=1.36 w=0.42 l=0.15
X15 a_n1533_42852# a_n1613_43370# VDD VDD sky130_fd_pr__pfet_01v8_hvt ad=0.1092 pd=1.36 as=0.07035 ps=0.755 w=0.42 l=0.15
X16 a_8103_44636# a_8375_44464# a_8333_44734# VDD sky130_fd_pr__pfet_01v8_hvt ad=0.1092 pd=1.36 as=0.0441 ps=0.63 w=0.42 l=0.15
X17 VSS a_16327_47482# a_16377_45572# VSS sky130_fd_pr__nfet_01v8 ad=0.1346 pd=1.15 as=0.0441 ps=0.63 w=0.42 l=0.15
X18 a_2437_43646# a_n443_46116# a_2437_43396# VSS sky130_fd_pr__nfet_01v8 ad=0.169 pd=1.82 as=0.08775 ps=0.92 w=0.65 l=0.15
X19 a_5088_37509# VSS VDAC_Ni VDD sky130_fd_pr__pfet_01v8_hvt ad=0.62 pd=4.62 as=0.33 ps=2.33 w=2 l=0.15
X20 a_n2810_45028# a_n2840_45002# VSS VSS sky130_fd_pr__nfet_01v8 ad=0.08775 pd=0.92 as=0.17225 ps=1.83 w=0.65 l=0.15
X21 a_2113_38308# VDAC_Ni a_2112_39137# VSS sky130_fd_pr__nfet_01v8_lvt ad=0.31 pd=2.62 as=0.31 ps=2.62 w=1 l=0.15
X22 VDD a_3626_43646# a_19647_42308# VDD sky130_fd_pr__pfet_01v8_hvt ad=0.149 pd=1.325 as=0.1664 ps=1.8 w=0.64 l=0.15
X23 VSS a_10334_44484# a_10440_44484# VSS sky130_fd_pr__nfet_01v8 ad=0.097 pd=0.975 as=0.1092 ps=1.36 w=0.42 l=0.15
X24 a_1576_42282# a_1755_42282# VSS VSS sky130_fd_pr__nfet_01v8 ad=0.1092 pd=1.36 as=0.097 ps=0.975 w=0.42 l=0.15
X25 a_10933_46660# a_10554_47026# a_10861_46660# VSS sky130_fd_pr__nfet_01v8 ad=0.1401 pd=1.1 as=0.0441 ps=0.63 w=0.42 l=0.15
X26 a_14021_43940# a_13483_43940# VDD VDD sky130_fd_pr__pfet_01v8_hvt ad=0.26 pd=2.52 as=0.155 ps=1.31 w=1 l=0.15
X27 a_16867_43762# a_16327_47482# VDD VDD sky130_fd_pr__pfet_01v8_hvt ad=0.1092 pd=1.36 as=0.07035 ps=0.755 w=0.42 l=0.15
X28 VREF a_21076_30879# C8_N_btm VDD sky130_fd_pr__pfet_01v8_lvt ad=1.16 pd=8.29 as=1.16 ps=8.29 w=8 l=0.35
X29 VSS a_n2946_37690# a_n3565_37414# VSS sky130_fd_pr__nfet_01v8 ad=0.08775 pd=0.92 as=0.08775 ps=0.92 w=0.65 l=0.15
X30 a_n913_45002# a_1307_43914# a_2075_43172# VSS sky130_fd_pr__nfet_01v8 ad=0.08775 pd=0.92 as=0.08775 ps=0.92 w=0.65 l=0.15
X31 a_n2840_43370# a_n2661_43370# VSS VSS sky130_fd_pr__nfet_01v8 ad=0.1092 pd=1.36 as=0.097 ps=0.975 w=0.42 l=0.15
X32 a_3457_43396# a_584_46384# VSS VSS sky130_fd_pr__nfet_01v8 ad=0.091 pd=0.93 as=0.12675 ps=1.04 w=0.65 l=0.15
X33 a_14180_46482# a_14035_46660# VSS VSS sky130_fd_pr__nfet_01v8 ad=0.066 pd=0.745 as=0.2205 ps=1.89 w=0.42 l=0.15
X34 VSS a_18989_43940# a_19006_44850# VSS sky130_fd_pr__nfet_01v8 ad=0.2205 pd=1.89 as=0.066 ps=0.745 w=0.42 l=0.15
X35 VSS a_9672_43914# a_2107_46812# VSS sky130_fd_pr__nfet_01v8 ad=0.112125 pd=0.995 as=0.17225 ps=1.83 w=0.65 l=0.15
X36 a_n1059_45260# a_17499_43370# VSS VSS sky130_fd_pr__nfet_01v8 ad=0.08775 pd=0.92 as=0.08775 ps=0.92 w=0.65 l=0.15
X37 a_n1696_34930# a_n1794_35082# VSS VSS sky130_fd_pr__nfet_01v8 ad=0.08775 pd=0.92 as=0.08775 ps=0.92 w=0.65 l=0.15
X38 VSS a_10695_43548# a_10057_43914# VSS sky130_fd_pr__nfet_01v8 ad=0.08775 pd=0.92 as=0.221 ps=1.98 w=0.65 l=0.15
X39 a_n2104_42282# a_n1925_42282# VSS VSS sky130_fd_pr__nfet_01v8 ad=0.1092 pd=1.36 as=0.097 ps=0.975 w=0.42 l=0.15
X40 a_20749_43396# a_12549_44172# a_743_42282# VSS sky130_fd_pr__nfet_01v8 ad=0.091 pd=0.93 as=0.091 ps=0.93 w=0.65 l=0.15
X41 VDD a_3877_44458# a_2382_45260# VDD sky130_fd_pr__pfet_01v8_hvt ad=0.26 pd=2.52 as=0.135 ps=1.27 w=1 l=0.15
X42 a_n1699_44726# a_n1917_44484# VSS VSS sky130_fd_pr__nfet_01v8 ad=0.0999 pd=0.985 as=0.1346 ps=1.15 w=0.64 l=0.15
X43 VSS a_n4334_39616# a_n4064_39616# VSS sky130_fd_pr__nfet_01v8 ad=0.091 pd=0.93 as=0.091 ps=0.93 w=0.65 l=0.15
X44 a_9241_45822# a_5066_45546# VDD VDD sky130_fd_pr__pfet_01v8_hvt ad=0.105 pd=1.21 as=0.26 ps=2.52 w=1 l=0.15
X45 VDD a_12883_44458# a_n2293_43922# VDD sky130_fd_pr__pfet_01v8_hvt ad=0.26 pd=2.52 as=0.135 ps=1.27 w=1 l=0.15
X46 a_11909_44484# a_3232_43370# a_11827_44484# VSS sky130_fd_pr__nfet_01v8 ad=0.08775 pd=0.92 as=0.169 ps=1.82 w=0.65 l=0.15
X47 a_835_46155# a_584_46384# a_376_46348# VDD sky130_fd_pr__pfet_01v8_hvt ad=0.0441 pd=0.63 as=0.1932 ps=1.34 w=0.42 l=0.15
X48 VSS a_1666_39043# a_1169_39043# VSS sky130_fd_pr__nfet_01v8 ad=0.169 pd=1.82 as=0.169 ps=1.82 w=0.65 l=0.15
X49 a_5210_46155# a_5164_46348# VDD VDD sky130_fd_pr__pfet_01v8_hvt ad=0.07665 pd=0.785 as=0.15835 ps=1.395 w=0.42 l=0.15
X50 VDD a_n3690_39392# a_n3420_39072# VDD sky130_fd_pr__pfet_01v8_hvt ad=0.14 pd=1.28 as=0.14 ps=1.28 w=1 l=0.15
X51 VDD a_167_45260# a_1609_45822# VDD sky130_fd_pr__pfet_01v8_hvt ad=0.26 pd=2.52 as=0.135 ps=1.27 w=1 l=0.15
X52 VSS a_526_44458# a_3363_44484# VSS sky130_fd_pr__nfet_01v8 ad=0.08775 pd=0.92 as=0.169 ps=1.82 w=0.65 l=0.15
X53 a_19268_43646# a_19319_43548# a_19095_43396# VSS sky130_fd_pr__nfet_01v8 ad=0.169 pd=1.82 as=0.10075 ps=0.96 w=0.65 l=0.15
X54 VSS a_22959_44484# a_19237_31679# VSS sky130_fd_pr__nfet_01v8 ad=0.17225 pd=1.83 as=0.08775 ps=0.92 w=0.65 l=0.15
X55 a_n2216_39072# a_n2312_39304# a_n2302_39072# VDD sky130_fd_pr__pfet_01v8_hvt ad=0.105 pd=1.21 as=0.28 ps=2.56 w=1 l=0.15
X56 a_19987_42826# a_10193_42453# VDD VDD sky130_fd_pr__pfet_01v8_hvt ad=0.26 pd=2.52 as=0.15 ps=1.3 w=1 l=0.15
X57 a_6151_47436# a_14311_47204# VDD VDD sky130_fd_pr__pfet_01v8_hvt ad=0.2054 pd=2.1 as=0.11455 ps=1.08 w=0.79 l=0.15
X58 a_8145_46902# a_7927_46660# VDD VDD sky130_fd_pr__pfet_01v8_hvt ad=0.12915 pd=1.185 as=0.2184 ps=2.2 w=0.84 l=0.15
X59 VCM a_4190_30871# C10_N_btm VSS sky130_fd_pr__nfet_01v8_lvt ad=1.32 pd=8.33 as=1.32 ps=8.33 w=8 l=0.15
X60 a_14275_46494# a_13925_46122# a_14180_46482# VDD sky130_fd_pr__pfet_01v8_hvt ad=0.07245 pd=0.765 as=0.0651 ps=0.73 w=0.42 l=0.15
X61 a_20512_43084# a_11967_42832# VSS VSS sky130_fd_pr__nfet_01v8 ad=0.08775 pd=0.92 as=0.169 ps=1.82 w=0.65 l=0.15
X62 a_14539_43914# a_17701_42308# VSS VSS sky130_fd_pr__nfet_01v8 ad=0.08775 pd=0.92 as=0.08775 ps=0.92 w=0.65 l=0.15
X63 a_6298_44484# a_2324_44458# VSS VSS sky130_fd_pr__nfet_01v8 ad=0.0588 pd=0.7 as=0.1113 ps=1.37 w=0.42 l=0.15
X64 a_644_44056# a_626_44172# VSS VSS sky130_fd_pr__nfet_01v8 ad=0.0567 pd=0.69 as=0.1092 ps=1.36 w=0.42 l=0.15
X65 a_10949_43914# a_12429_44172# VDD VDD sky130_fd_pr__pfet_01v8_hvt ad=0.195 pd=1.39 as=0.28 ps=2.56 w=1 l=0.15
X66 VSS a_n2302_39866# a_n4209_39590# VSS sky130_fd_pr__nfet_01v8 ad=0.08775 pd=0.92 as=0.08775 ps=0.92 w=0.65 l=0.15
X67 VSS a_21811_47423# a_20916_46384# VSS sky130_fd_pr__nfet_01v8 ad=0.0754 pd=0.81 as=0.1352 ps=1.56 w=0.52 l=0.15
X68 VDD a_3699_46634# a_3686_47026# VDD sky130_fd_pr__pfet_01v8_hvt ad=0.0819 pd=0.81 as=0.0567 ps=0.69 w=0.42 l=0.15
X69 VSS a_15682_46116# a_11599_46634# VSS sky130_fd_pr__nfet_01v8 ad=0.0588 pd=0.7 as=0.0588 ps=0.7 w=0.42 l=0.15
X70 a_8035_47026# a_7411_46660# a_7927_46660# VDD sky130_fd_pr__pfet_01v8_hvt ad=0.1155 pd=0.97 as=0.07245 ps=0.765 w=0.42 l=0.15
X71 a_5691_45260# a_5111_44636# a_5837_45348# VSS sky130_fd_pr__nfet_01v8 ad=0.169 pd=1.82 as=0.11375 ps=1 w=0.65 l=0.15
X72 VDD a_1307_43914# a_1241_43940# VDD sky130_fd_pr__pfet_01v8_hvt ad=0.26 pd=2.52 as=0.165 ps=1.33 w=1 l=0.15
X73 a_5088_37509# VDAC_P a_8912_37509# VDD sky130_fd_pr__pfet_01v8 ad=0.87 pd=6.29 as=0.87 ps=6.29 w=6 l=0.2
X74 a_18249_42858# a_18083_42858# VSS VSS sky130_fd_pr__nfet_01v8 ad=0.1092 pd=1.36 as=0.0567 ps=0.69 w=0.42 l=0.15
X75 VDD a_104_43370# a_n971_45724# VDD sky130_fd_pr__pfet_01v8_hvt ad=0.149 pd=1.325 as=0.135 ps=1.27 w=1 l=0.15
X76 VDD a_n2833_47464# CLK_DATA VDD sky130_fd_pr__pfet_01v8_hvt ad=0.14 pd=1.28 as=0.14 ps=1.28 w=1 l=0.15
X77 a_3363_44484# a_1823_45246# a_3232_43370# VSS sky130_fd_pr__nfet_01v8 ad=0.169 pd=1.82 as=0.08775 ps=0.92 w=0.65 l=0.15
X78 a_n1331_43914# a_n1549_44318# VDD VDD sky130_fd_pr__pfet_01v8_hvt ad=0.12915 pd=1.185 as=0.2184 ps=2.2 w=0.84 l=0.15
X79 VCM a_4958_30871# C9_P_btm VSS sky130_fd_pr__nfet_01v8_lvt ad=1.32 pd=8.33 as=1.32 ps=8.33 w=8 l=0.15
X80 VSS a_n3565_39590# a_n3607_39616# VSS sky130_fd_pr__nfet_01v8 ad=0.138125 pd=1.075 as=0.06825 ps=0.86 w=0.65 l=0.15
X81 VSS a_12281_43396# a_12563_42308# VSS sky130_fd_pr__nfet_01v8 ad=0.097 pd=0.975 as=0.1092 ps=1.36 w=0.42 l=0.15
X82 VSS a_18780_47178# a_13661_43548# VSS sky130_fd_pr__nfet_01v8 ad=0.097 pd=0.975 as=0.08775 ps=0.92 w=0.65 l=0.15
X83 a_n4318_39768# a_n2840_43914# VSS VSS sky130_fd_pr__nfet_01v8 ad=0.08775 pd=0.92 as=0.17225 ps=1.83 w=0.65 l=0.15
X84 DATA[5] a_11459_47204# VDD VDD sky130_fd_pr__pfet_01v8_hvt ad=0.14 pd=1.28 as=0.165 ps=1.33 w=1 l=0.15
X85 a_7230_45938# a_6472_45840# a_6667_45809# VDD sky130_fd_pr__pfet_01v8_hvt ad=0.0651 pd=0.73 as=0.07245 ps=0.765 w=0.42 l=0.15
X86 VDD a_8049_45260# a_22959_45572# VDD sky130_fd_pr__pfet_01v8_hvt ad=0.149 pd=1.325 as=0.1664 ps=1.8 w=0.64 l=0.15
X87 a_2324_44458# a_8953_45002# VSS VSS sky130_fd_pr__nfet_01v8 ad=0.0588 pd=0.7 as=0.0588 ps=0.7 w=0.42 l=0.15
X88 a_8746_45002# a_7499_43078# VSS VSS sky130_fd_pr__nfet_01v8 ad=0.08775 pd=0.92 as=0.169 ps=1.82 w=0.65 l=0.15
X89 a_15004_44636# a_11691_44458# a_15146_44484# VSS sky130_fd_pr__nfet_01v8 ad=0.09975 pd=0.895 as=0.0693 ps=0.75 w=0.42 l=0.15
X90 a_16223_45938# a_15599_45572# a_16115_45572# VDD sky130_fd_pr__pfet_01v8_hvt ad=0.1155 pd=0.97 as=0.07245 ps=0.765 w=0.42 l=0.15
X91 a_n984_44318# a_n1899_43946# a_n1331_43914# VSS sky130_fd_pr__special_nfet_01v8 ad=0.0711 pd=0.755 as=0.0999 ps=0.985 w=0.36 l=0.15
X92 a_n809_44244# a_n1613_43370# VDD VDD sky130_fd_pr__pfet_01v8_hvt ad=0.0567 pd=0.69 as=0.0819 ps=0.81 w=0.42 l=0.15
X93 a_n4064_39616# a_n4334_39616# VSS VSS sky130_fd_pr__nfet_01v8 ad=0.091 pd=0.93 as=0.138125 ps=1.075 w=0.65 l=0.15
X94 a_17124_42282# a_17303_42282# VSS VSS sky130_fd_pr__nfet_01v8 ad=0.1092 pd=1.36 as=0.097 ps=0.975 w=0.42 l=0.15
X95 VDD a_15682_46116# a_11599_46634# VDD sky130_fd_pr__pfet_01v8_hvt ad=0.14 pd=1.28 as=0.14 ps=1.28 w=1 l=0.15
X96 VSS a_3065_45002# a_2680_45002# VSS sky130_fd_pr__nfet_01v8 ad=0.208 pd=1.94 as=0.10725 ps=0.98 w=0.65 l=0.15
X97 a_5193_42852# a_5111_44636# VDD VDD sky130_fd_pr__pfet_01v8_hvt ad=0.16 pd=1.32 as=0.2529 ps=2.52 w=1 l=0.15
X98 VDD a_6969_46634# a_6999_46987# VDD sky130_fd_pr__pfet_01v8_hvt ad=0.0693 pd=0.75 as=0.0441 ps=0.63 w=0.42 l=0.15
X99 VDD a_10623_46897# a_10554_47026# VDD sky130_fd_pr__pfet_01v8_hvt ad=0.2184 pd=2.2 as=0.12915 ps=1.185 w=0.84 l=0.15
X100 a_16137_43396# a_15781_43660# VDD VDD sky130_fd_pr__pfet_01v8_hvt ad=0.26 pd=2.52 as=0.142225 ps=1.335 w=1 l=0.15
X101 VDD a_n2472_46634# a_n2442_46660# VDD sky130_fd_pr__pfet_01v8_hvt ad=0.149 pd=1.325 as=0.135 ps=1.27 w=1 l=0.15
X102 VDD a_4185_45028# a_22959_45036# VDD sky130_fd_pr__pfet_01v8_hvt ad=0.149 pd=1.325 as=0.1664 ps=1.8 w=0.64 l=0.15
X103 a_15225_45822# a_15037_45618# a_15143_45578# VDD sky130_fd_pr__pfet_01v8_hvt ad=0.0441 pd=0.63 as=0.1092 ps=1.36 w=0.42 l=0.15
X104 VSS a_3537_45260# a_4640_45348# VSS sky130_fd_pr__nfet_01v8 ad=0.10025 pd=0.985 as=0.08775 ps=0.92 w=0.65 l=0.15
X105 a_n2012_43396# a_n2129_43609# VDD VDD sky130_fd_pr__pfet_01v8_hvt ad=0.0651 pd=0.73 as=0.1092 ps=1.36 w=0.42 l=0.15
X106 VDD a_n13_43084# a_n1853_43023# VDD sky130_fd_pr__pfet_01v8_hvt ad=0.155 pd=1.31 as=0.26 ps=2.52 w=1 l=0.15
X107 a_5068_46348# a_n1151_42308# a_5210_46155# VDD sky130_fd_pr__pfet_01v8_hvt ad=0.1932 pd=1.34 as=0.07665 ps=0.785 w=0.42 l=0.15
X108 a_873_42968# a_685_42968# a_791_42968# VDD sky130_fd_pr__pfet_01v8_hvt ad=0.0441 pd=0.63 as=0.1092 ps=1.36 w=0.42 l=0.15
X109 a_17730_32519# a_22591_44484# VDD VDD sky130_fd_pr__pfet_01v8_hvt ad=0.135 pd=1.27 as=0.149 ps=1.325 w=1 l=0.15
X110 a_11967_42832# a_15682_43940# VSS VSS sky130_fd_pr__nfet_01v8 ad=0.0588 pd=0.7 as=0.0588 ps=0.7 w=0.42 l=0.15
X111 VDD a_22485_44484# a_20974_43370# VDD sky130_fd_pr__pfet_01v8_hvt ad=0.26 pd=2.52 as=0.135 ps=1.27 w=1 l=0.15
X112 a_n1021_46688# a_n1151_42308# VDD VDD sky130_fd_pr__pfet_01v8_hvt ad=0.0567 pd=0.69 as=0.1176 ps=1.4 w=0.42 l=0.15
X113 VSS a_11599_46634# a_11735_46660# VSS sky130_fd_pr__nfet_01v8 ad=0.0567 pd=0.69 as=0.1092 ps=1.36 w=0.42 l=0.15
X114 a_13163_45724# a_13259_45724# VDD VDD sky130_fd_pr__pfet_01v8_hvt ad=0.06615 pd=0.735 as=0.14075 ps=1.325 w=0.42 l=0.15
X115 C9_P_btm a_4958_30871# VCM VSS sky130_fd_pr__nfet_01v8_lvt ad=1.32 pd=8.33 as=1.32 ps=8.33 w=8 l=0.15
X116 a_11599_46634# a_15682_46116# VSS VSS sky130_fd_pr__nfet_01v8 ad=0.0588 pd=0.7 as=0.0588 ps=0.7 w=0.42 l=0.15
X117 a_n2012_44484# a_n2129_44697# VSS VSS sky130_fd_pr__nfet_01v8 ad=0.066 pd=0.745 as=0.2205 ps=1.89 w=0.42 l=0.15
X118 VIN_N EN_VIN_BSTR_N a_10890_34112# VSS sky130_fd_pr__nfet_01v8 ad=1.24 pd=8.62 as=0.66 ps=4.33 w=4 l=0.15
X119 a_877_34256# EN_VIN_BSTR_P a_n1057_35014# VSS sky130_fd_pr__nfet_01v8 ad=0.165 pd=1.33 as=0.31 ps=2.62 w=1 l=0.15
X120 a_13940_44484# a_13556_45296# VSS VSS sky130_fd_pr__nfet_01v8 ad=0.091 pd=0.93 as=0.26 ps=1.45 w=0.65 l=0.15
X121 VSS a_1414_42308# a_1525_44260# VSS sky130_fd_pr__nfet_01v8 ad=0.10725 pd=0.98 as=0.06825 ps=0.86 w=0.65 l=0.15
X122 a_8487_44056# a_4223_44672# a_8415_44056# VDD sky130_fd_pr__pfet_01v8_hvt ad=0.0693 pd=0.75 as=0.0441 ps=0.63 w=0.42 l=0.15
X123 VDAC_P a_3422_30871# VCM VSS sky130_fd_pr__nfet_01v8_lvt ad=1.32 pd=8.33 as=2.48 ps=16.62 w=8 l=0.15
X124 a_16434_46660# a_16388_46812# VSS VSS sky130_fd_pr__nfet_01v8 ad=0.0693 pd=0.75 as=0.11285 ps=1.045 w=0.42 l=0.15
X125 a_22613_38993# a_22527_39145# VDD VDD sky130_fd_pr__pfet_01v8_hvt ad=0.26 pd=2.52 as=0.26 ps=2.52 w=1 l=0.15
X126 a_3315_47570# a_n1151_42308# a_2952_47436# VSS sky130_fd_pr__nfet_01v8 ad=0.0693 pd=0.75 as=0.09975 ps=0.895 w=0.42 l=0.15
X127 a_2680_45002# a_1823_45246# a_2903_45348# VSS sky130_fd_pr__nfet_01v8 ad=0.10725 pd=0.98 as=0.10725 ps=0.98 w=0.65 l=0.15
X128 a_1307_43914# a_2779_44458# VDD VDD sky130_fd_pr__pfet_01v8_hvt ad=0.14 pd=1.28 as=0.3 ps=2.6 w=1 l=0.15
X129 a_22731_47423# SMPL_ON_N VDD VDD sky130_fd_pr__pfet_01v8_hvt ad=0.2054 pd=2.1 as=0.11455 ps=1.08 w=0.79 l=0.15
X130 VDD a_1307_43914# a_3681_42891# VDD sky130_fd_pr__pfet_01v8_hvt ad=0.0693 pd=0.75 as=0.1176 ps=1.4 w=0.42 l=0.15
X131 a_n863_45724# a_1667_45002# VSS VSS sky130_fd_pr__nfet_01v8 ad=0.0567 pd=0.69 as=0.1092 ps=1.36 w=0.42 l=0.15
X132 VDD a_11459_47204# DATA[5] VDD sky130_fd_pr__pfet_01v8_hvt ad=0.14 pd=1.28 as=0.14 ps=1.28 w=1 l=0.15
X133 VSS a_8953_45002# a_2324_44458# VSS sky130_fd_pr__nfet_01v8 ad=0.0588 pd=0.7 as=0.0588 ps=0.7 w=0.42 l=0.15
X134 a_4646_46812# a_6298_44484# VDD VDD sky130_fd_pr__pfet_01v8_hvt ad=0.14 pd=1.28 as=0.14 ps=1.28 w=1 l=0.15
X135 VSS VDD VSS VSS sky130_fd_pr__nfet_01v8 ad=0.143 pd=1.62 as=218.18214 ps=2.11206k w=0.55 l=0.59
X136 VREF_GND a_18114_32519# C10_N_btm VSS sky130_fd_pr__nfet_01v8 ad=1.32 pd=8.33 as=1.32 ps=8.33 w=8 l=0.15
X137 a_n4209_38216# a_n2302_37984# VDD VDD sky130_fd_pr__pfet_01v8_hvt ad=0.135 pd=1.27 as=0.1775 ps=1.355 w=1 l=0.15
X138 a_10467_46802# a_11599_46634# VDD VDD sky130_fd_pr__pfet_01v8_hvt ad=0.1664 pd=1.8 as=0.0864 ps=0.91 w=0.64 l=0.15
X139 VDD a_13747_46662# a_19862_44208# VDD sky130_fd_pr__pfet_01v8_hvt ad=0.26 pd=2.52 as=0.135 ps=1.27 w=1 l=0.15
X140 a_n2946_39866# a_n2956_39768# VSS VSS sky130_fd_pr__nfet_01v8 ad=0.08775 pd=0.92 as=0.169 ps=1.82 w=0.65 l=0.15
X141 a_n1013_45572# a_n1079_45724# a_n1099_45572# VSS sky130_fd_pr__nfet_01v8 ad=0.125125 pd=1.035 as=0.182 ps=1.86 w=0.65 l=0.15
X142 VSS a_15279_43071# a_14579_43548# VSS sky130_fd_pr__nfet_01v8 ad=0.0754 pd=0.81 as=0.1352 ps=1.56 w=0.52 l=0.15
X143 DATA[3] a_7227_47204# VDD VDD sky130_fd_pr__pfet_01v8_hvt ad=0.14 pd=1.28 as=0.14 ps=1.28 w=1 l=0.15
X144 VSS a_8049_45260# a_22959_45572# VSS sky130_fd_pr__nfet_01v8 ad=0.097 pd=0.975 as=0.1092 ps=1.36 w=0.42 l=0.15
X145 a_7584_44260# a_7542_44172# a_7281_43914# VSS sky130_fd_pr__nfet_01v8 ad=0.091 pd=0.93 as=0.089375 ps=0.925 w=0.65 l=0.15
X146 a_n97_42460# a_19700_43370# VSS VSS sky130_fd_pr__nfet_01v8 ad=0.08775 pd=0.92 as=0.17225 ps=1.83 w=0.65 l=0.15
X147 VDD a_19647_42308# a_13258_32519# VDD sky130_fd_pr__pfet_01v8_hvt ad=0.265 pd=2.53 as=0.135 ps=1.27 w=1 l=0.15
X148 a_3754_39466# a_7754_39300# VSS sky130_fd_pr__res_high_po_0p35 l=18
X149 VSS a_2952_47436# a_2747_46873# VSS sky130_fd_pr__nfet_01v8 ad=0.11285 pd=1.045 as=0.169 ps=1.82 w=0.65 l=0.15
X150 VDD a_16751_45260# a_6171_45002# VDD sky130_fd_pr__pfet_01v8_hvt ad=0.14825 pd=1.34 as=0.275 ps=2.55 w=1 l=0.15
X151 a_18326_43940# a_18079_43940# VDD VDD sky130_fd_pr__pfet_01v8_hvt ad=0.26 pd=2.52 as=0.14075 ps=1.325 w=1 l=0.15
X152 a_9248_44260# a_8270_45546# VSS VSS sky130_fd_pr__nfet_01v8 ad=0.091 pd=0.93 as=0.26 ps=1.45 w=0.65 l=0.15
X153 a_3503_45724# a_3775_45552# a_3733_45822# VDD sky130_fd_pr__pfet_01v8_hvt ad=0.1092 pd=1.36 as=0.0441 ps=0.63 w=0.42 l=0.15
X154 a_n2017_45002# a_19987_42826# VDD VDD sky130_fd_pr__pfet_01v8_hvt ad=0.135 pd=1.27 as=0.32 ps=2.64 w=1 l=0.15
X155 a_288_46660# a_171_46873# VSS VSS sky130_fd_pr__nfet_01v8 ad=0.066 pd=0.745 as=0.2205 ps=1.89 w=0.42 l=0.15
X156 a_10037_46155# a_9804_47204# a_9823_46155# VDD sky130_fd_pr__pfet_01v8_hvt ad=0.07665 pd=0.785 as=0.1932 ps=1.34 w=0.42 l=0.15
X157 a_20075_46420# a_16327_47482# VDD VDD sky130_fd_pr__pfet_01v8_hvt ad=0.0567 pd=0.69 as=0.0819 ps=0.81 w=0.42 l=0.15
X158 VDD a_196_42282# a_n3674_37592# VDD sky130_fd_pr__pfet_01v8_hvt ad=0.149 pd=1.325 as=0.135 ps=1.27 w=1 l=0.15
X159 VSS a_14513_46634# a_14447_46660# VSS sky130_fd_pr__nfet_01v8 ad=0.1449 pd=1.11 as=0.0693 ps=0.75 w=0.42 l=0.15
X160 a_n4064_39072# a_n4334_39392# VDD VDD sky130_fd_pr__pfet_01v8_hvt ad=0.14 pd=1.28 as=0.14 ps=1.28 w=1 l=0.15
X161 a_1149_42558# a_961_42354# a_1067_42314# VDD sky130_fd_pr__pfet_01v8_hvt ad=0.0441 pd=0.63 as=0.1092 ps=1.36 w=0.42 l=0.15
X162 a_13569_47204# a_13381_47204# a_13487_47204# VDD sky130_fd_pr__pfet_01v8_hvt ad=0.19 pd=1.38 as=0.26 ps=2.52 w=1 l=0.15
X163 VDD a_14840_46494# a_15015_46420# VDD sky130_fd_pr__pfet_01v8_hvt ad=0.1134 pd=1.38 as=0.0567 ps=0.69 w=0.42 l=0.15
X164 C6_P_btm a_n3565_39304# VREF VDD sky130_fd_pr__pfet_01v8_lvt ad=2.32 pd=16.58 as=1.16 ps=8.29 w=8 l=0.35
X165 VDD VSS VDD VDD sky130_fd_pr__pfet_01v8_hvt ad=0.2262 pd=2.26 as=0 ps=0 w=0.87 l=1.05
X166 a_2324_44458# a_8953_45002# VSS VSS sky130_fd_pr__nfet_01v8 ad=0.0588 pd=0.7 as=0.1113 ps=1.37 w=0.42 l=0.15
X167 a_14537_43396# a_14358_43442# VSS VSS sky130_fd_pr__nfet_01v8 ad=0.221 pd=1.98 as=0.08775 ps=0.92 w=0.65 l=0.15
X168 VDD a_14955_47212# a_10227_46804# VDD sky130_fd_pr__pfet_01v8_hvt ad=0.265 pd=2.53 as=0.135 ps=1.27 w=1 l=0.15
X169 VDD a_7754_40130# a_11206_38545# VDD sky130_fd_pr__pfet_01v8 ad=2.32 pd=16.58 as=2.32 ps=16.58 w=8 l=0.5
X170 a_n3565_39590# a_n2946_39866# VDD VDD sky130_fd_pr__pfet_01v8_hvt ad=0.135 pd=1.27 as=0.135 ps=1.27 w=1 l=0.15
X171 a_n901_43156# a_n1613_43370# VDD VDD sky130_fd_pr__pfet_01v8_hvt ad=0.0567 pd=0.69 as=0.0819 ps=0.81 w=0.42 l=0.15
X172 a_17668_45572# a_3090_45724# VSS VSS sky130_fd_pr__nfet_01v8 ad=0.169 pd=1.82 as=0.105625 ps=0.975 w=0.65 l=0.15
X173 a_n2438_43548# a_949_44458# VSS VSS sky130_fd_pr__nfet_01v8 ad=0.0588 pd=0.7 as=0.0588 ps=0.7 w=0.42 l=0.15
X174 a_15493_43396# a_14955_43396# VSS VSS sky130_fd_pr__nfet_01v8 ad=0.169 pd=1.82 as=0.196275 ps=1.33 w=0.65 l=0.15
X175 a_7309_43172# a_5891_43370# VSS VSS sky130_fd_pr__nfet_01v8 ad=0.07475 pd=0.88 as=0.169 ps=1.82 w=0.65 l=0.15
X176 VDD a_1138_42852# a_1337_46116# VDD sky130_fd_pr__pfet_01v8_hvt ad=0.165 pd=1.33 as=0.16 ps=1.32 w=1 l=0.15
X177 a_1427_43646# a_1568_43370# VDD VDD sky130_fd_pr__pfet_01v8_hvt ad=0.265 pd=2.53 as=0.14 ps=1.28 w=1 l=0.15
X178 a_18184_42460# a_15743_43084# VSS VSS sky130_fd_pr__nfet_01v8 ad=0.08775 pd=0.92 as=0.169 ps=1.82 w=0.65 l=0.15
X179 VDD a_13351_46090# a_10903_43370# VDD sky130_fd_pr__pfet_01v8_hvt ad=0.1625 pd=1.325 as=0.135 ps=1.27 w=1 l=0.15
X180 a_8379_46155# a_8128_46384# a_7920_46348# VDD sky130_fd_pr__pfet_01v8_hvt ad=0.0441 pd=0.63 as=0.1932 ps=1.34 w=0.42 l=0.15
X181 VSS a_3483_46348# a_17325_44484# VSS sky130_fd_pr__nfet_01v8 ad=0.10075 pd=0.96 as=0.11375 ps=1 w=0.65 l=0.15
X182 VDD a_9290_44172# a_10949_43914# VDD sky130_fd_pr__pfet_01v8_hvt ad=0.14575 pd=1.335 as=0.135 ps=1.27 w=1 l=0.15
X183 VSS a_11823_42460# a_14358_43442# VSS sky130_fd_pr__nfet_01v8 ad=0.10025 pd=0.985 as=0.1092 ps=1.36 w=0.42 l=0.15
X184 a_18310_42308# a_10193_42453# a_18220_42308# VSS sky130_fd_pr__nfet_01v8 ad=0.14625 pd=1.1 as=0.0975 ps=0.95 w=0.65 l=0.15
X185 VDD a_n2288_47178# a_n2312_40392# VDD sky130_fd_pr__pfet_01v8_hvt ad=0.149 pd=1.325 as=0.135 ps=1.27 w=1 l=0.15
X186 a_17719_45144# a_16375_45002# VSS VSS sky130_fd_pr__nfet_01v8 ad=0.0567 pd=0.69 as=0.0567 ps=0.69 w=0.42 l=0.15
X187 VDD a_5891_43370# a_5147_45002# VDD sky130_fd_pr__pfet_01v8_hvt ad=0.26 pd=2.52 as=0.135 ps=1.27 w=1 l=0.15
X188 a_7287_43370# a_n1613_43370# VDD VDD sky130_fd_pr__pfet_01v8_hvt ad=0.0567 pd=0.69 as=0.0819 ps=0.81 w=0.42 l=0.15
X189 a_11173_44260# a_2063_45854# VSS VSS sky130_fd_pr__nfet_01v8 ad=0.08775 pd=0.92 as=0.169 ps=1.82 w=0.65 l=0.15
X190 a_11897_42308# a_11823_42460# a_11551_42558# VSS sky130_fd_pr__nfet_01v8 ad=0.11375 pd=1 as=0.169 ps=1.82 w=0.65 l=0.15
X191 VDD a_12861_44030# a_13759_47204# VDD sky130_fd_pr__pfet_01v8_hvt ad=0.19 pd=1.38 as=0.135 ps=1.27 w=1 l=0.15
X192 a_19466_46812# a_19778_44110# VSS VSS sky130_fd_pr__nfet_01v8 ad=0.08775 pd=0.92 as=0.169 ps=1.82 w=0.65 l=0.15
X193 a_9049_44484# a_8701_44490# VSS VSS sky130_fd_pr__nfet_01v8 ad=0.182 pd=1.86 as=0.101875 ps=0.99 w=0.65 l=0.15
X194 a_n3565_38502# a_n2946_38778# VSS VSS sky130_fd_pr__nfet_01v8 ad=0.08775 pd=0.92 as=0.08775 ps=0.92 w=0.65 l=0.15
X195 VDD a_16588_47582# a_16763_47508# VDD sky130_fd_pr__pfet_01v8_hvt ad=0.1134 pd=1.38 as=0.0567 ps=0.69 w=0.42 l=0.15
X196 a_9396_43370# a_4883_46098# VSS VSS sky130_fd_pr__nfet_01v8 ad=0.1092 pd=1.36 as=0.097 ps=0.975 w=0.42 l=0.15
X197 C0_P_btm a_n784_42308# VCM VSS sky130_fd_pr__nfet_01v8_lvt ad=0.62 pd=4.62 as=0.62 ps=4.62 w=2 l=0.15
X198 a_n1736_42282# a_n1557_42282# VSS VSS sky130_fd_pr__nfet_01v8 ad=0.1092 pd=1.36 as=0.097 ps=0.975 w=0.42 l=0.15
X199 VDD a_14113_42308# a_16522_42674# VDD sky130_fd_pr__pfet_01v8_hvt ad=0.1092 pd=1.36 as=0.0651 ps=0.73 w=0.42 l=0.15
X200 a_10651_43940# a_3090_45724# a_10555_43940# VDD sky130_fd_pr__pfet_01v8_hvt ad=0.195 pd=1.39 as=0.165 ps=1.33 w=1 l=0.15
X201 VDD a_8667_46634# a_n237_47217# VDD sky130_fd_pr__pfet_01v8_hvt ad=0.26 pd=2.52 as=0.135 ps=1.27 w=1 l=0.15
X202 a_6123_31319# a_7227_42308# VSS VSS sky130_fd_pr__nfet_01v8 ad=0.08775 pd=0.92 as=0.097 ps=0.975 w=0.65 l=0.15
X203 a_7499_43078# a_10083_42826# VSS VSS sky130_fd_pr__nfet_01v8 ad=0.08775 pd=0.92 as=0.08775 ps=0.92 w=0.65 l=0.15
X204 VSS a_n755_45592# a_1145_45348# VSS sky130_fd_pr__nfet_01v8 ad=0.169 pd=1.82 as=0.08775 ps=0.92 w=0.65 l=0.15
X205 C7_P_btm a_5534_30871# VCM VSS sky130_fd_pr__nfet_01v8_lvt ad=2.48 pd=16.62 as=1.32 ps=8.33 w=8 l=0.15
X206 VREF a_22612_30879# C10_N_btm VDD sky130_fd_pr__pfet_01v8_lvt ad=1.16 pd=8.29 as=1.16 ps=8.29 w=8 l=0.35
X207 VSS a_n4064_37984# a_n2302_37984# VSS sky130_fd_pr__nfet_01v8 ad=0.115375 pd=1.005 as=0.08775 ps=0.92 w=0.65 l=0.15
X208 VSS a_949_44458# a_n2438_43548# VSS sky130_fd_pr__nfet_01v8 ad=0.0588 pd=0.7 as=0.0588 ps=0.7 w=0.42 l=0.15
X209 a_3581_42558# a_3539_42460# a_3497_42558# VDD sky130_fd_pr__pfet_01v8_hvt ad=0.135 pd=1.27 as=0.135 ps=1.27 w=1 l=0.15
X210 a_n3674_38680# a_n2840_42282# VDD VDD sky130_fd_pr__pfet_01v8_hvt ad=0.135 pd=1.27 as=0.265 ps=2.53 w=1 l=0.15
X211 VSS a_5907_45546# a_5937_45572# VSS sky130_fd_pr__nfet_01v8 ad=0.2087 pd=2.02 as=0.08775 ps=0.92 w=0.65 l=0.15
X212 a_18783_43370# a_15743_43084# VSS VSS sky130_fd_pr__nfet_01v8 ad=0.1092 pd=1.36 as=0.0567 ps=0.69 w=0.42 l=0.15
X213 VDD a_22589_40055# a_22527_39145# VDD sky130_fd_pr__pfet_01v8_hvt ad=0.26 pd=2.52 as=0.26 ps=2.52 w=1 l=0.15
X214 VSS a_1799_45572# a_1983_46706# VSS sky130_fd_pr__nfet_01v8 ad=0.10025 pd=0.985 as=0.1092 ps=1.36 w=0.42 l=0.15
X215 VDD a_22959_46660# a_21076_30879# VDD sky130_fd_pr__pfet_01v8_hvt ad=0.265 pd=2.53 as=0.135 ps=1.27 w=1 l=0.15
X216 a_13467_32519# a_21487_43396# VDD VDD sky130_fd_pr__pfet_01v8_hvt ad=0.135 pd=1.27 as=0.149 ps=1.325 w=1 l=0.15
X217 C10_P_btm a_n4064_40160# VREF_GND VSS sky130_fd_pr__nfet_01v8 ad=1.32 pd=8.33 as=1.32 ps=8.33 w=8 l=0.15
X218 a_2864_46660# a_2747_46873# VSS VSS sky130_fd_pr__nfet_01v8 ad=0.066 pd=0.745 as=0.2205 ps=1.89 w=0.42 l=0.15
X219 VDD VSS VDD VDD sky130_fd_pr__pfet_01v8_hvt ad=0.2262 pd=2.26 as=0 ps=0 w=0.87 l=0.59
X220 a_8199_44636# a_10355_46116# VSS VSS sky130_fd_pr__nfet_01v8 ad=0.0567 pd=0.69 as=0.06825 ps=0.745 w=0.42 l=0.15
X221 a_14403_45348# a_13259_45724# a_14309_45348# VSS sky130_fd_pr__nfet_01v8 ad=0.10725 pd=0.98 as=0.104 ps=0.97 w=0.65 l=0.15
X222 a_556_44484# a_742_44458# VSS VSS sky130_fd_pr__nfet_01v8 ad=0.17225 pd=1.83 as=0.12675 ps=1.04 w=0.65 l=0.15
X223 VSS a_15433_44458# a_15367_44484# VSS sky130_fd_pr__nfet_01v8 ad=0.1449 pd=1.11 as=0.0693 ps=0.75 w=0.42 l=0.15
X224 a_n1794_35082# a_564_42282# VDD VDD sky130_fd_pr__pfet_01v8_hvt ad=0.135 pd=1.27 as=0.265 ps=2.53 w=1 l=0.15
X225 a_n2840_43370# a_n2661_43370# VDD VDD sky130_fd_pr__pfet_01v8_hvt ad=0.1664 pd=1.8 as=0.149 ps=1.325 w=0.64 l=0.15
X226 w_1575_34786# a_877_34256# EN_VIN_BSTR_P w_1575_34786# sky130_fd_pr__pfet_01v8 ad=0.66 pd=4.33 as=0.66 ps=4.33 w=4 l=0.15
X227 VSS a_13747_46662# a_13693_46688# VSS sky130_fd_pr__nfet_01v8 ad=0.1118 pd=1.04 as=0.0567 ps=0.69 w=0.42 l=0.15
X228 a_18245_44484# a_17767_44458# VSS VSS sky130_fd_pr__nfet_01v8 ad=0.0669 pd=0.75 as=0.12495 ps=1.015 w=0.42 l=0.15
X229 a_19741_43940# a_19862_44208# VDD VDD sky130_fd_pr__pfet_01v8_hvt ad=0.1092 pd=1.36 as=0.0567 ps=0.69 w=0.42 l=0.15
X230 a_16855_43396# a_16409_43396# a_16759_43396# VSS sky130_fd_pr__special_nfet_01v8 ad=0.1401 pd=1.1 as=0.0594 ps=0.69 w=0.36 l=0.15
X231 a_13113_42826# a_12895_43230# VSS VSS sky130_fd_pr__nfet_01v8 ad=0.0999 pd=0.985 as=0.1346 ps=1.15 w=0.64 l=0.15
X232 VSS a_22365_46825# a_20202_43084# VSS sky130_fd_pr__nfet_01v8 ad=0.0754 pd=0.81 as=0.1352 ps=1.56 w=0.52 l=0.15
X233 a_n1079_45724# a_n755_45592# VSS VSS sky130_fd_pr__nfet_01v8 ad=0.1092 pd=1.36 as=0.10025 ps=0.985 w=0.42 l=0.15
X234 a_19386_47436# a_19321_45002# VDD VDD sky130_fd_pr__pfet_01v8_hvt ad=0.1092 pd=1.36 as=0.14575 ps=1.335 w=0.42 l=0.15
X235 a_4646_46812# a_6298_44484# VSS VSS sky130_fd_pr__nfet_01v8 ad=0.0588 pd=0.7 as=0.0588 ps=0.7 w=0.42 l=0.15
X236 VSS a_526_44458# a_2075_43172# VSS sky130_fd_pr__nfet_01v8 ad=0.08775 pd=0.92 as=0.169 ps=1.82 w=0.65 l=0.15
X237 a_n89_47570# a_n237_47217# a_n452_47436# VSS sky130_fd_pr__nfet_01v8 ad=0.0693 pd=0.75 as=0.09975 ps=0.895 w=0.42 l=0.15
X238 VDD VSS VDD VDD sky130_fd_pr__pfet_01v8_hvt ad=0.2262 pd=2.26 as=0 ps=0 w=0.87 l=0.59
X239 a_1176_45822# a_167_45260# VDD VDD sky130_fd_pr__pfet_01v8_hvt ad=0.135 pd=1.27 as=0.14575 ps=1.335 w=1 l=0.15
X240 a_10341_43396# a_9803_43646# VSS VSS sky130_fd_pr__nfet_01v8 ad=0.169 pd=1.82 as=0.10075 ps=0.96 w=0.65 l=0.15
X241 VDD a_n4209_38502# a_n4334_38528# VDD sky130_fd_pr__pfet_01v8_hvt ad=0.1775 pd=1.355 as=0.14 ps=1.28 w=1 l=0.15
X242 a_5111_42852# a_4905_42826# a_5193_43172# VSS sky130_fd_pr__nfet_01v8 ad=0.169 pd=1.82 as=0.07475 ps=0.88 w=0.65 l=0.15
X243 a_13887_32519# a_22223_43396# VSS VSS sky130_fd_pr__nfet_01v8 ad=0.08775 pd=0.92 as=0.097 ps=0.975 w=0.65 l=0.15
X244 a_5437_45600# a_n881_46662# VSS VSS sky130_fd_pr__nfet_01v8 ad=0.0567 pd=0.69 as=0.1118 ps=1.04 w=0.42 l=0.15
X245 a_18953_45572# a_18909_45814# a_18787_45572# VSS sky130_fd_pr__nfet_01v8 ad=0.0441 pd=0.63 as=0.1401 ps=1.1 w=0.42 l=0.15
X246 VDD a_4791_45118# a_6165_46155# VDD sky130_fd_pr__pfet_01v8_hvt ad=0.0693 pd=0.75 as=0.1176 ps=1.4 w=0.42 l=0.15
X247 VDD a_3429_45260# a_3316_45546# VDD sky130_fd_pr__pfet_01v8_hvt ad=0.1925 pd=1.385 as=0.28 ps=2.56 w=1 l=0.15
X248 VCM a_3422_30871# VDAC_P VSS sky130_fd_pr__nfet_01v8_lvt ad=1.32 pd=8.33 as=1.32 ps=8.33 w=8 l=0.15
X249 a_n3607_39616# a_n3674_39768# a_n3690_39616# VSS sky130_fd_pr__nfet_01v8 ad=0.06825 pd=0.86 as=0.17225 ps=1.83 w=0.65 l=0.15
X250 a_4842_47570# a_4791_45118# VSS VSS sky130_fd_pr__nfet_01v8 ad=0.0693 pd=0.75 as=0.11285 ps=1.045 w=0.42 l=0.15
X251 a_1337_46116# a_n881_46662# VDD VDD sky130_fd_pr__pfet_01v8_hvt ad=0.165 pd=1.33 as=0.165 ps=1.33 w=1 l=0.15
X252 a_11136_45572# a_11322_45546# VSS VSS sky130_fd_pr__nfet_01v8 ad=0.17225 pd=1.83 as=0.12675 ps=1.04 w=0.65 l=0.15
X253 a_n2661_42834# a_10809_44734# a_12189_44484# VSS sky130_fd_pr__nfet_01v8 ad=0.169 pd=1.82 as=0.08775 ps=0.92 w=0.65 l=0.15