* SPICE3 file created from SAR_ADC_12bit_flat.ext - technology: sky130A
* Changed subckt name from SAR_ADC_12bit_flat to SAR_ADC_12bit

.subckt SAR_ADC_12bit VDD VCM VSS VREF VIN_P VIN_N RST_Z CLK_DATA DATA[5] DATA[4] DATA[3] DATA[2] DATA[1] DATA[0] START
+ EN_OFFSET_CAL CLK VREF_GND SINGLE_ENDED
X0 a_8912_37509# VDAC_P a_5088_37509# VDD sky130_fd_pr__pfet_01v8 ad=0.87 pd=6.29 as=0.87 ps=6.29 w=6 l=0.2
X1 a_13076_44458# a_13259_45724# a_13296_44484# VSS sky130_fd_pr__nfet_01v8 ad=0.091 pd=0.93 as=0.091 ps=0.93 w=0.65 l=0.15
X2 VDD a_2324_44458# a_949_44458# VDD sky130_fd_pr__pfet_01v8_hvt ad=0.14 pd=1.28 as=0.14 ps=1.28 w=1 l=0.15
X3 VDAC_N C9_N_btm sky130_fd_pr__cap_mim_m3_1 l=1 w=1
X4 VSS a_12427_45724# a_10490_45724# VSS sky130_fd_pr__nfet_01v8 ad=0.1034 pd=1 as=0.169 ps=1.82 w=0.65 l=0.15
X5 VDAC_P C10_P_btm sky130_fd_pr__cap_mim_m3_1 l=1 w=1
X6 VDAC_N C9_N_btm sky130_fd_pr__cap_mim_m3_1 l=1 w=1
X7 VDAC_P C3_P_btm sky130_fd_pr__cap_mim_m3_1 l=1 w=1
X8 VDAC_N C6_N_btm sky130_fd_pr__cap_mim_m3_1 l=1 w=1
X9 VDD CAL_N VDD VDD sky130_fd_pr__pfet_01v8_lvt ad=1.45 pd=10.29 as=361.2627 ps=3.22652k w=10 l=10
X10 a_5088_37509# VDAC_P a_8912_37509# VDD sky130_fd_pr__pfet_01v8 ad=0.87 pd=6.29 as=0.87 ps=6.29 w=6 l=0.2
X11 VDD a_2903_42308# a_3080_42308# VDD sky130_fd_pr__pfet_01v8_hvt ad=0.265 pd=2.53 as=0.135 ps=1.27 w=1 l=0.15
X12 VDD VSS VDD VDD sky130_fd_pr__pfet_01v8_hvt ad=0.2262 pd=2.26 as=0 ps=0 w=0.87 l=2.89
X13 VDAC_P C10_P_btm sky130_fd_pr__cap_mim_m3_1 l=1 w=1
X14 VDD a_12861_44030# a_17829_46910# VDD sky130_fd_pr__pfet_01v8_hvt ad=0.135 pd=1.27 as=0.135 ps=1.27 w=1 l=0.15
X15 VSS a_1209_43370# a_n1557_42282# VSS sky130_fd_pr__nfet_01v8 ad=0.25675 pd=1.44 as=0.169 ps=1.82 w=0.65 l=0.15
X16 VDAC_P C9_P_btm sky130_fd_pr__cap_mim_m3_1 l=1 w=1
X17 VDAC_N C10_N_btm sky130_fd_pr__cap_mim_m3_1 l=1 w=1
X18 VDAC_N C7_N_btm sky130_fd_pr__cap_mim_m3_1 l=1 w=1
X19 VDAC_N C10_N_btm sky130_fd_pr__cap_mim_m3_1 l=1 w=1
X20 a_16237_45028# a_16147_45260# a_16019_45002# VDD sky130_fd_pr__pfet_01v8_hvt ad=0.135 pd=1.27 as=0.26 ps=2.52 w=1 l=0.15
X21 a_2075_43172# a_526_44458# VSS VSS sky130_fd_pr__nfet_01v8 ad=0.08775 pd=0.92 as=0.08775 ps=0.92 w=0.65 l=0.15
X22 VDD a_n755_45592# a_1176_45822# VDD sky130_fd_pr__pfet_01v8_hvt ad=0.1925 pd=1.385 as=0.135 ps=1.27 w=1 l=0.15
X23 a_6756_44260# a_5937_45572# a_6453_43914# VSS sky130_fd_pr__nfet_01v8 ad=0.091 pd=0.93 as=0.089375 ps=0.925 w=0.65 l=0.15
X24 a_n1533_42852# a_n1613_43370# VDD VDD sky130_fd_pr__pfet_01v8_hvt ad=0.1092 pd=1.36 as=0.07035 ps=0.755 w=0.42 l=0.15
X25 VDAC_N C9_N_btm sky130_fd_pr__cap_mim_m3_1 l=1 w=1
X26 VDAC_N C10_N_btm sky130_fd_pr__cap_mim_m3_1 l=1 w=1
X27 VDAC_P C10_P_btm sky130_fd_pr__cap_mim_m3_1 l=1 w=1
X28 a_15868_43402# a_15681_43442# a_15781_43660# VSS sky130_fd_pr__nfet_01v8 ad=0.0441 pd=0.63 as=0.107825 ps=1.36 w=0.42 l=0.15
X29 a_8103_44636# a_8375_44464# a_8333_44734# VDD sky130_fd_pr__pfet_01v8_hvt ad=0.1092 pd=1.36 as=0.0441 ps=0.63 w=0.42 l=0.15
X30 VDAC_N C10_N_btm sky130_fd_pr__cap_mim_m3_1 l=1 w=1
X31 VDAC_N C9_N_btm sky130_fd_pr__cap_mim_m3_1 l=1 w=1
X32 VDAC_P C8_P_btm sky130_fd_pr__cap_mim_m3_1 l=1 w=1
X33 VDAC_P C10_P_btm sky130_fd_pr__cap_mim_m3_1 l=1 w=1
X34 VSS a_16327_47482# a_16377_45572# VSS sky130_fd_pr__nfet_01v8 ad=0.1346 pd=1.15 as=0.0441 ps=0.63 w=0.42 l=0.15
X35 a_2437_43646# a_n443_46116# a_2437_43396# VSS sky130_fd_pr__nfet_01v8 ad=0.169 pd=1.82 as=0.08775 ps=0.92 w=0.65 l=0.15
X36 a_5088_37509# VSS VDAC_Ni VDD sky130_fd_pr__pfet_01v8_hvt ad=0.62 pd=4.62 as=0.33 ps=2.33 w=2 l=0.15
X37 a_n2810_45028# a_n2840_45002# VSS VSS sky130_fd_pr__nfet_01v8 ad=0.08775 pd=0.92 as=0.17225 ps=1.83 w=0.65 l=0.15
X38 a_2113_38308# VDAC_Ni a_2112_39137# VSS sky130_fd_pr__nfet_01v8_lvt ad=0.31 pd=2.62 as=0.31 ps=2.62 w=1 l=0.15
X39 VDD a_3626_43646# a_19647_42308# VDD sky130_fd_pr__pfet_01v8_hvt ad=0.149 pd=1.325 as=0.1664 ps=1.8 w=0.64 l=0.15
X40 VDAC_P C10_P_btm sky130_fd_pr__cap_mim_m3_1 l=1 w=1
X41 VDAC_N C9_N_btm sky130_fd_pr__cap_mim_m3_1 l=1 w=1
X42 VDAC_N C10_N_btm sky130_fd_pr__cap_mim_m3_1 l=1 w=1
X43 VDAC_N C10_N_btm sky130_fd_pr__cap_mim_m3_1 l=1 w=1
X44 VSS a_10334_44484# a_10440_44484# VSS sky130_fd_pr__nfet_01v8 ad=0.097 pd=0.975 as=0.1092 ps=1.36 w=0.42 l=0.15
X45 a_1576_42282# a_1755_42282# VSS VSS sky130_fd_pr__nfet_01v8 ad=0.1092 pd=1.36 as=0.097 ps=0.975 w=0.42 l=0.15
X46 a_10933_46660# a_10554_47026# a_10861_46660# VSS sky130_fd_pr__nfet_01v8 ad=0.1401 pd=1.1 as=0.0441 ps=0.63 w=0.42 l=0.15
X47 VDAC_N C8_N_btm sky130_fd_pr__cap_mim_m3_1 l=1 w=1
X48 VDAC_N C9_N_btm sky130_fd_pr__cap_mim_m3_1 l=1 w=1
X49 a_16867_43762# a_16327_47482# VDD VDD sky130_fd_pr__pfet_01v8_hvt ad=0.1092 pd=1.36 as=0.07035 ps=0.755 w=0.42 l=0.15
X50 a_14021_43940# a_13483_43940# VDD VDD sky130_fd_pr__pfet_01v8_hvt ad=0.26 pd=2.52 as=0.155 ps=1.31 w=1 l=0.15
X51 VDAC_P C9_P_btm sky130_fd_pr__cap_mim_m3_1 l=1 w=1
X52 VREF a_21076_30879# C8_N_btm VDD sky130_fd_pr__pfet_01v8_lvt ad=1.16 pd=8.29 as=1.16 ps=8.29 w=8 l=0.35
X53 VDAC_P C10_P_btm sky130_fd_pr__cap_mim_m3_1 l=1 w=1
X54 VSS a_n2946_37690# a_n3565_37414# VSS sky130_fd_pr__nfet_01v8 ad=0.08775 pd=0.92 as=0.08775 ps=0.92 w=0.65 l=0.15
X55 VDAC_N C10_N_btm sky130_fd_pr__cap_mim_m3_1 l=1 w=1
X56 VDAC_P C10_P_btm sky130_fd_pr__cap_mim_m3_1 l=1 w=1
X57 VDAC_N C8_N_btm sky130_fd_pr__cap_mim_m3_1 l=1 w=1
X58 VDAC_N C10_N_btm sky130_fd_pr__cap_mim_m3_1 l=1 w=1
X59 a_n913_45002# a_1307_43914# a_2075_43172# VSS sky130_fd_pr__nfet_01v8 ad=0.08775 pd=0.92 as=0.08775 ps=0.92 w=0.65 l=0.15
X60 VDAC_P C10_P_btm sky130_fd_pr__cap_mim_m3_1 l=1 w=1
X61 VDAC_N C9_N_btm sky130_fd_pr__cap_mim_m3_1 l=1 w=1
X62 a_n2840_43370# a_n2661_43370# VSS VSS sky130_fd_pr__nfet_01v8 ad=0.1092 pd=1.36 as=0.097 ps=0.975 w=0.42 l=0.15
X63 a_3457_43396# a_584_46384# VSS VSS sky130_fd_pr__nfet_01v8 ad=0.091 pd=0.93 as=0.12675 ps=1.04 w=0.65 l=0.15
X64 a_1343_38525# a_1177_38525# VDD VDD sky130_fd_pr__pfet_01v8_hvt ad=0.135 pd=1.27 as=0.135 ps=1.27 w=1 l=0.15
X65 VSS a_9672_43914# a_2107_46812# VSS sky130_fd_pr__nfet_01v8 ad=0.112125 pd=0.995 as=0.17225 ps=1.83 w=0.65 l=0.15
X66 VDAC_P C9_P_btm sky130_fd_pr__cap_mim_m3_1 l=1 w=1
X67 a_14180_46482# a_14035_46660# VSS VSS sky130_fd_pr__nfet_01v8 ad=0.066 pd=0.745 as=0.2205 ps=1.89 w=0.42 l=0.15
X68 VDAC_N C10_N_btm sky130_fd_pr__cap_mim_m3_1 l=1 w=1
X69 VDAC_P C6_P_btm sky130_fd_pr__cap_mim_m3_1 l=1 w=1
X70 VSS C4_N_btm sky130_fd_pr__cap_mim_m3_1 l=1 w=1
X71 a_n1059_45260# a_17499_43370# VSS VSS sky130_fd_pr__nfet_01v8 ad=0.08775 pd=0.92 as=0.08775 ps=0.92 w=0.65 l=0.15
X72 VSS a_18989_43940# a_19006_44850# VSS sky130_fd_pr__nfet_01v8 ad=0.2205 pd=1.89 as=0.066 ps=0.745 w=0.42 l=0.15
X73 VDAC_N C10_N_btm sky130_fd_pr__cap_mim_m3_1 l=1 w=1
X74 a_20749_43396# a_12549_44172# a_743_42282# VSS sky130_fd_pr__nfet_01v8 ad=0.091 pd=0.93 as=0.091 ps=0.93 w=0.65 l=0.15
X75 a_n2104_42282# a_n1925_42282# VSS VSS sky130_fd_pr__nfet_01v8 ad=0.1092 pd=1.36 as=0.097 ps=0.975 w=0.42 l=0.15
X76 VSS a_10695_43548# a_10057_43914# VSS sky130_fd_pr__nfet_01v8 ad=0.08775 pd=0.92 as=0.221 ps=1.98 w=0.65 l=0.15
X77 VDAC_P C10_P_btm sky130_fd_pr__cap_mim_m3_1 l=1 w=1
X78 VDAC_N C10_N_btm sky130_fd_pr__cap_mim_m3_1 l=1 w=1
X79 VDD a_3877_44458# a_2382_45260# VDD sky130_fd_pr__pfet_01v8_hvt ad=0.26 pd=2.52 as=0.135 ps=1.27 w=1 l=0.15
X80 VDAC_P C8_P_btm sky130_fd_pr__cap_mim_m3_1 l=1 w=1
X81 VDAC_P VSS sky130_fd_pr__cap_mim_m3_1 l=1 w=1
X82 VDAC_N C9_N_btm sky130_fd_pr__cap_mim_m3_1 l=1 w=1
X83 VSS a_n4334_39616# a_n4064_39616# VSS sky130_fd_pr__nfet_01v8 ad=0.091 pd=0.93 as=0.091 ps=0.93 w=0.65 l=0.15
X84 a_n1699_44726# a_n1917_44484# VSS VSS sky130_fd_pr__nfet_01v8 ad=0.0999 pd=0.985 as=0.1346 ps=1.15 w=0.64 l=0.15
X85 VDAC_N C8_N_btm sky130_fd_pr__cap_mim_m3_1 l=1 w=1
X86 VDD a_12883_44458# a_n2293_43922# VDD sky130_fd_pr__pfet_01v8_hvt ad=0.26 pd=2.52 as=0.135 ps=1.27 w=1 l=0.15
X87 VDAC_P C9_P_btm sky130_fd_pr__cap_mim_m3_1 l=1 w=1
X88 a_9241_45822# a_5066_45546# VDD VDD sky130_fd_pr__pfet_01v8_hvt ad=0.105 pd=1.21 as=0.26 ps=2.52 w=1 l=0.15
X89 a_11909_44484# a_3232_43370# a_11827_44484# VSS sky130_fd_pr__nfet_01v8 ad=0.08775 pd=0.92 as=0.169 ps=1.82 w=0.65 l=0.15
X90 VDAC_N C10_N_btm sky130_fd_pr__cap_mim_m3_1 l=1 w=1
X91 VDAC_P C10_P_btm sky130_fd_pr__cap_mim_m3_1 l=1 w=1
X92 a_835_46155# a_584_46384# a_376_46348# VDD sky130_fd_pr__pfet_01v8_hvt ad=0.0441 pd=0.63 as=0.1932 ps=1.34 w=0.42 l=0.15
X93 VSS C10_N_btm sky130_fd_pr__cap_mim_m3_1 l=1 w=1
X94 VSS VSS sky130_fd_pr__cap_mim_m3_1 l=1 w=1
X95 a_5210_46155# a_5164_46348# VDD VDD sky130_fd_pr__pfet_01v8_hvt ad=0.07665 pd=0.785 as=0.15835 ps=1.395 w=0.42 l=0.15
X96 VDAC_P C9_P_btm sky130_fd_pr__cap_mim_m3_1 l=1 w=1
X97 VDD a_n3690_39392# a_n3420_39072# VDD sky130_fd_pr__pfet_01v8_hvt ad=0.14 pd=1.28 as=0.14 ps=1.28 w=1 l=0.15
X98 VDAC_N C9_N_btm sky130_fd_pr__cap_mim_m3_1 l=1 w=1
X99 VDAC_P C10_P_btm sky130_fd_pr__cap_mim_m3_1 l=1 w=1
X100 VDAC_N C10_N_btm sky130_fd_pr__cap_mim_m3_1 l=1 w=1
X101 VDD a_167_45260# a_1609_45822# VDD sky130_fd_pr__pfet_01v8_hvt ad=0.26 pd=2.52 as=0.135 ps=1.27 w=1 l=0.15
X102 VSS a_526_44458# a_3363_44484# VSS sky130_fd_pr__nfet_01v8 ad=0.08775 pd=0.92 as=0.169 ps=1.82 w=0.65 l=0.15
X103 VDAC_N C7_N_btm sky130_fd_pr__cap_mim_m3_1 l=1 w=1
X104 a_19268_43646# a_19319_43548# a_19095_43396# VSS sky130_fd_pr__nfet_01v8 ad=0.169 pd=1.82 as=0.10075 ps=0.96 w=0.65 l=0.15
X105 VSS a_22959_44484# a_19237_31679# VSS sky130_fd_pr__nfet_01v8 ad=0.17225 pd=1.83 as=0.08775 ps=0.92 w=0.65 l=0.15
X106 VDAC_P C2_P_btm sky130_fd_pr__cap_mim_m3_1 l=1 w=1
X107 a_n2216_39072# a_n2312_39304# a_n2302_39072# VDD sky130_fd_pr__pfet_01v8_hvt ad=0.105 pd=1.21 as=0.28 ps=2.56 w=1 l=0.15
X108 VDAC_P C9_P_btm sky130_fd_pr__cap_mim_m3_1 l=1 w=1
X109 VDD a_1177_38525# a_1343_38525# VDD sky130_fd_pr__pfet_01v8_hvt ad=0.26 pd=2.52 as=0.135 ps=1.27 w=1 l=0.15
X110 a_19987_42826# a_10193_42453# VDD VDD sky130_fd_pr__pfet_01v8_hvt ad=0.26 pd=2.52 as=0.15 ps=1.3 w=1 l=0.15
X111 a_6151_47436# a_14311_47204# VDD VDD sky130_fd_pr__pfet_01v8_hvt ad=0.2054 pd=2.1 as=0.11455 ps=1.08 w=0.79 l=0.15
X112 a_8145_46902# a_7927_46660# VDD VDD sky130_fd_pr__pfet_01v8_hvt ad=0.12915 pd=1.185 as=0.2184 ps=2.2 w=0.84 l=0.15
X113 VDAC_N C10_N_btm sky130_fd_pr__cap_mim_m3_1 l=1 w=1
X114 VCM a_4190_30871# C10_N_btm VSS sky130_fd_pr__nfet_01v8_lvt ad=1.32 pd=8.33 as=1.32 ps=8.33 w=8 l=0.15
X115 a_14275_46494# a_13925_46122# a_14180_46482# VDD sky130_fd_pr__pfet_01v8_hvt ad=0.07245 pd=0.765 as=0.0651 ps=0.73 w=0.42 l=0.15
X116 a_20512_43084# a_11967_42832# VSS VSS sky130_fd_pr__nfet_01v8 ad=0.08775 pd=0.92 as=0.169 ps=1.82 w=0.65 l=0.15
X117 a_14539_43914# a_17701_42308# VSS VSS sky130_fd_pr__nfet_01v8 ad=0.08775 pd=0.92 as=0.08775 ps=0.92 w=0.65 l=0.15
X118 VDAC_P C10_P_btm sky130_fd_pr__cap_mim_m3_1 l=1 w=1
X119 VDAC_N C7_N_btm sky130_fd_pr__cap_mim_m3_1 l=1 w=1
X120 VDAC_N C10_N_btm sky130_fd_pr__cap_mim_m3_1 l=1 w=1
X121 VDAC_N C10_N_btm sky130_fd_pr__cap_mim_m3_1 l=1 w=1
X122 VDAC_P C10_P_btm sky130_fd_pr__cap_mim_m3_1 l=1 w=1
X123 a_6298_44484# a_2324_44458# VSS VSS sky130_fd_pr__nfet_01v8 ad=0.0588 pd=0.7 as=0.1113 ps=1.37 w=0.42 l=0.15
X124 a_644_44056# a_626_44172# VSS VSS sky130_fd_pr__nfet_01v8 ad=0.0567 pd=0.69 as=0.1092 ps=1.36 w=0.42 l=0.15
X125 VDAC_P C10_P_btm sky130_fd_pr__cap_mim_m3_1 l=1 w=1
X126 a_10949_43914# a_12429_44172# VDD VDD sky130_fd_pr__pfet_01v8_hvt ad=0.195 pd=1.39 as=0.28 ps=2.56 w=1 l=0.15
X127 VDAC_N C9_N_btm sky130_fd_pr__cap_mim_m3_1 l=1 w=1
X128 VSS a_n2302_39866# a_n4209_39590# VSS sky130_fd_pr__nfet_01v8 ad=0.08775 pd=0.92 as=0.08775 ps=0.92 w=0.65 l=0.15
X129 VDAC_P C7_P_btm sky130_fd_pr__cap_mim_m3_1 l=1 w=1
X130 VSS a_15682_46116# a_11599_46634# VSS sky130_fd_pr__nfet_01v8 ad=0.0588 pd=0.7 as=0.0588 ps=0.7 w=0.42 l=0.15
X131 VDAC_P C7_P_btm sky130_fd_pr__cap_mim_m3_1 l=1 w=1
X132 VDAC_N C10_N_btm sky130_fd_pr__cap_mim_m3_1 l=1 w=1
X133 VDD a_3699_46634# a_3686_47026# VDD sky130_fd_pr__pfet_01v8_hvt ad=0.0819 pd=0.81 as=0.0567 ps=0.69 w=0.42 l=0.15
X134 VSS a_21811_47423# a_20916_46384# VSS sky130_fd_pr__nfet_01v8 ad=0.0754 pd=0.81 as=0.1352 ps=1.56 w=0.52 l=0.15
X135 VDAC_P C9_P_btm sky130_fd_pr__cap_mim_m3_1 l=1 w=1
X136 a_5691_45260# a_5111_44636# a_5837_45348# VSS sky130_fd_pr__nfet_01v8 ad=0.169 pd=1.82 as=0.11375 ps=1 w=0.65 l=0.15
X137 VDAC_N C10_N_btm sky130_fd_pr__cap_mim_m3_1 l=1 w=1
X138 a_18249_42858# a_18083_42858# VSS VSS sky130_fd_pr__nfet_01v8 ad=0.1092 pd=1.36 as=0.0567 ps=0.69 w=0.42 l=0.15
X139 a_8035_47026# a_7411_46660# a_7927_46660# VDD sky130_fd_pr__pfet_01v8_hvt ad=0.1155 pd=0.97 as=0.07245 ps=0.765 w=0.42 l=0.15
X140 VDD a_1307_43914# a_1241_43940# VDD sky130_fd_pr__pfet_01v8_hvt ad=0.26 pd=2.52 as=0.165 ps=1.33 w=1 l=0.15
X141 VDAC_P C10_P_btm sky130_fd_pr__cap_mim_m3_1 l=1 w=1
X142 a_5088_37509# VDAC_P a_8912_37509# VDD sky130_fd_pr__pfet_01v8 ad=0.87 pd=6.29 as=0.87 ps=6.29 w=6 l=0.2
X143 VDD a_104_43370# a_n971_45724# VDD sky130_fd_pr__pfet_01v8_hvt ad=0.149 pd=1.325 as=0.135 ps=1.27 w=1 l=0.15
X144 VDAC_P C10_P_btm sky130_fd_pr__cap_mim_m3_1 l=1 w=1
X145 VDAC_N C9_N_btm sky130_fd_pr__cap_mim_m3_1 l=1 w=1
X146 VDAC_P C9_P_btm sky130_fd_pr__cap_mim_m3_1 l=1 w=1
X147 VSS a_n3565_39590# a_n3607_39616# VSS sky130_fd_pr__nfet_01v8 ad=0.138125 pd=1.075 as=0.06825 ps=0.86 w=0.65 l=0.15
X148 a_n1331_43914# a_n1549_44318# VDD VDD sky130_fd_pr__pfet_01v8_hvt ad=0.12915 pd=1.185 as=0.2184 ps=2.2 w=0.84 l=0.15
X149 VDD a_n2833_47464# CLK_DATA VDD sky130_fd_pr__pfet_01v8_hvt ad=0.14 pd=1.28 as=0.14 ps=1.28 w=1 l=0.15
X150 a_3363_44484# a_1823_45246# a_3232_43370# VSS sky130_fd_pr__nfet_01v8 ad=0.169 pd=1.82 as=0.08775 ps=0.92 w=0.65 l=0.15
X151 VCM a_4958_30871# C9_P_btm VSS sky130_fd_pr__nfet_01v8_lvt ad=1.32 pd=8.33 as=1.32 ps=8.33 w=8 l=0.15
X152 VDAC_P C9_P_btm sky130_fd_pr__cap_mim_m3_1 l=1 w=1
X153 VSS a_12281_43396# a_12563_42308# VSS sky130_fd_pr__nfet_01v8 ad=0.097 pd=0.975 as=0.1092 ps=1.36 w=0.42 l=0.15
X154 VDAC_N C9_N_btm sky130_fd_pr__cap_mim_m3_1 l=1 w=1
X155 VSS a_22400_42852# a_22780_40081# VSS sky130_fd_pr__nfet_01v8 ad=0.169 pd=1.82 as=0.08775 ps=0.92 w=0.65 l=0.15
X156 VSS a_18780_47178# a_13661_43548# VSS sky130_fd_pr__nfet_01v8 ad=0.097 pd=0.975 as=0.08775 ps=0.92 w=0.65 l=0.15
X157 VDAC_P C10_P_btm sky130_fd_pr__cap_mim_m3_1 l=1 w=1
X158 a_n4318_39768# a_n2840_43914# VSS VSS sky130_fd_pr__nfet_01v8 ad=0.08775 pd=0.92 as=0.17225 ps=1.83 w=0.65 l=0.15
X159 VDAC_P C10_P_btm sky130_fd_pr__cap_mim_m3_1 l=1 w=1
X160 DATA[5] a_11459_47204# VDD VDD sky130_fd_pr__pfet_01v8_hvt ad=0.14 pd=1.28 as=0.165 ps=1.33 w=1 l=0.15
X161 a_15004_44636# a_11691_44458# a_15146_44484# VSS sky130_fd_pr__nfet_01v8 ad=0.09975 pd=0.895 as=0.0693 ps=0.75 w=0.42 l=0.15
X162 VDAC_N C9_N_btm sky130_fd_pr__cap_mim_m3_1 l=1 w=1
X163 VDD a_8049_45260# a_22959_45572# VDD sky130_fd_pr__pfet_01v8_hvt ad=0.149 pd=1.325 as=0.1664 ps=1.8 w=0.64 l=0.15
X164 a_7230_45938# a_6472_45840# a_6667_45809# VDD sky130_fd_pr__pfet_01v8_hvt ad=0.0651 pd=0.73 as=0.07245 ps=0.765 w=0.42 l=0.15
X165 VDAC_P C6_P_btm sky130_fd_pr__cap_mim_m3_1 l=1 w=1
X166 VDAC_N C9_N_btm sky130_fd_pr__cap_mim_m3_1 l=1 w=1
X167 a_2324_44458# a_8953_45002# VSS VSS sky130_fd_pr__nfet_01v8 ad=0.0588 pd=0.7 as=0.0588 ps=0.7 w=0.42 l=0.15
X168 a_8746_45002# a_7499_43078# VSS VSS sky130_fd_pr__nfet_01v8 ad=0.08775 pd=0.92 as=0.169 ps=1.82 w=0.65 l=0.15
X169 VDAC_P C9_P_btm sky130_fd_pr__cap_mim_m3_1 l=1 w=1
X170 VDAC_N C10_N_btm sky130_fd_pr__cap_mim_m3_1 l=1 w=1
X171 a_n984_44318# a_n1899_43946# a_n1331_43914# VSS sky130_fd_pr__special_nfet_01v8 ad=0.0711 pd=0.755 as=0.0999 ps=0.985 w=0.36 l=0.15
X172 a_n4064_39616# a_n4334_39616# VSS VSS sky130_fd_pr__nfet_01v8 ad=0.091 pd=0.93 as=0.138125 ps=1.075 w=0.65 l=0.15
X173 a_17124_42282# a_17303_42282# VSS VSS sky130_fd_pr__nfet_01v8 ad=0.1092 pd=1.36 as=0.097 ps=0.975 w=0.42 l=0.15
X174 a_16223_45938# a_15599_45572# a_16115_45572# VDD sky130_fd_pr__pfet_01v8_hvt ad=0.1155 pd=0.97 as=0.07245 ps=0.765 w=0.42 l=0.15
X175 a_n809_44244# a_n1613_43370# VDD VDD sky130_fd_pr__pfet_01v8_hvt ad=0.0567 pd=0.69 as=0.0819 ps=0.81 w=0.42 l=0.15
X176 VSS a_3065_45002# a_2680_45002# VSS sky130_fd_pr__nfet_01v8 ad=0.208 pd=1.94 as=0.10725 ps=0.98 w=0.65 l=0.15
X177 VDAC_N C10_N_btm sky130_fd_pr__cap_mim_m3_1 l=1 w=1
X178 a_5193_42852# a_5111_44636# VDD VDD sky130_fd_pr__pfet_01v8_hvt ad=0.16 pd=1.32 as=0.2529 ps=2.52 w=1 l=0.15
X179 VDAC_P C9_P_btm sky130_fd_pr__cap_mim_m3_1 l=1 w=1
X180 VDD a_15682_46116# a_11599_46634# VDD sky130_fd_pr__pfet_01v8_hvt ad=0.14 pd=1.28 as=0.14 ps=1.28 w=1 l=0.15
X181 VDD a_6969_46634# a_6999_46987# VDD sky130_fd_pr__pfet_01v8_hvt ad=0.0693 pd=0.75 as=0.0441 ps=0.63 w=0.42 l=0.15
X182 VDD a_10623_46897# a_10554_47026# VDD sky130_fd_pr__pfet_01v8_hvt ad=0.2184 pd=2.2 as=0.12915 ps=1.185 w=0.84 l=0.15
X183 a_16137_43396# a_15781_43660# VDD VDD sky130_fd_pr__pfet_01v8_hvt ad=0.26 pd=2.52 as=0.142225 ps=1.335 w=1 l=0.15
X184 VDAC_N C10_N_btm sky130_fd_pr__cap_mim_m3_1 l=1 w=1
X185 VDAC_N C10_N_btm sky130_fd_pr__cap_mim_m3_1 l=1 w=1
X186 VDAC_P C9_P_btm sky130_fd_pr__cap_mim_m3_1 l=1 w=1
X187 VDD a_n2472_46634# a_n2442_46660# VDD sky130_fd_pr__pfet_01v8_hvt ad=0.149 pd=1.325 as=0.135 ps=1.27 w=1 l=0.15
X188 VDAC_N C6_N_btm sky130_fd_pr__cap_mim_m3_1 l=1 w=1
X189 VDAC_N C9_N_btm sky130_fd_pr__cap_mim_m3_1 l=1 w=1
X190 VDD a_4185_45028# a_22959_45036# VDD sky130_fd_pr__pfet_01v8_hvt ad=0.149 pd=1.325 as=0.1664 ps=1.8 w=0.64 l=0.15
X191 VDAC_P C7_P_btm sky130_fd_pr__cap_mim_m3_1 l=1 w=1
X192 a_15225_45822# a_15037_45618# a_15143_45578# VDD sky130_fd_pr__pfet_01v8_hvt ad=0.0441 pd=0.63 as=0.1092 ps=1.36 w=0.42 l=0.15
X193 VSS a_3537_45260# a_4640_45348# VSS sky130_fd_pr__nfet_01v8 ad=0.10025 pd=0.985 as=0.08775 ps=0.92 w=0.65 l=0.15
X194 VDAC_P C10_P_btm sky130_fd_pr__cap_mim_m3_1 l=1 w=1
X195 VDAC_N C10_N_btm sky130_fd_pr__cap_mim_m3_1 l=1 w=1
X196 VDAC_P C9_P_btm sky130_fd_pr__cap_mim_m3_1 l=1 w=1
X197 VDAC_N C9_N_btm sky130_fd_pr__cap_mim_m3_1 l=1 w=1
X198 VDAC_P C8_P_btm sky130_fd_pr__cap_mim_m3_1 l=1 w=1
X199 VDAC_P C8_P_btm sky130_fd_pr__cap_mim_m3_1 l=1 w=1
X200 VSS C4_N_btm sky130_fd_pr__cap_mim_m3_1 l=1 w=1
X201 VDAC_N VSS sky130_fd_pr__cap_mim_m3_1 l=1 w=1
X202 VDAC_P C10_P_btm sky130_fd_pr__cap_mim_m3_1 l=1 w=1
X203 a_n2012_43396# a_n2129_43609# VDD VDD sky130_fd_pr__pfet_01v8_hvt ad=0.0651 pd=0.73 as=0.1092 ps=1.36 w=0.42 l=0.15
X204 VDAC_N C10_N_btm sky130_fd_pr__cap_mim_m3_1 l=1 w=1
X205 VDD a_n13_43084# a_n1853_43023# VDD sky130_fd_pr__pfet_01v8_hvt ad=0.155 pd=1.31 as=0.26 ps=2.52 w=1 l=0.15
X206 VDAC_N C10_N_btm sky130_fd_pr__cap_mim_m3_1 l=1 w=1
X207 a_5068_46348# a_n1151_42308# a_5210_46155# VDD sky130_fd_pr__pfet_01v8_hvt ad=0.1932 pd=1.34 as=0.07665 ps=0.785 w=0.42 l=0.15
X208 VDAC_N C9_N_btm sky130_fd_pr__cap_mim_m3_1 l=1 w=1
X209 a_873_42968# a_685_42968# a_791_42968# VDD sky130_fd_pr__pfet_01v8_hvt ad=0.0441 pd=0.63 as=0.1092 ps=1.36 w=0.42 l=0.15
X210 VDAC_P C10_P_btm sky130_fd_pr__cap_mim_m3_1 l=1 w=1
X211 a_11967_42832# a_15682_43940# VSS VSS sky130_fd_pr__nfet_01v8 ad=0.0588 pd=0.7 as=0.0588 ps=0.7 w=0.42 l=0.15
X212 VDD a_22485_44484# a_20974_43370# VDD sky130_fd_pr__pfet_01v8_hvt ad=0.26 pd=2.52 as=0.135 ps=1.27 w=1 l=0.15
X213 a_17730_32519# a_22591_44484# VDD VDD sky130_fd_pr__pfet_01v8_hvt ad=0.135 pd=1.27 as=0.149 ps=1.325 w=1 l=0.15
X214 VDAC_P C10_P_btm sky130_fd_pr__cap_mim_m3_1 l=1 w=1
X215 a_n1021_46688# a_n1151_42308# VDD VDD sky130_fd_pr__pfet_01v8_hvt ad=0.0567 pd=0.69 as=0.1176 ps=1.4 w=0.42 l=0.15
X216 VDAC_P C9_P_btm sky130_fd_pr__cap_mim_m3_1 l=1 w=1
X217 VSS a_11599_46634# a_11735_46660# VSS sky130_fd_pr__nfet_01v8 ad=0.0567 pd=0.69 as=0.1092 ps=1.36 w=0.42 l=0.15
X218 VDAC_P C8_P_btm sky130_fd_pr__cap_mim_m3_1 l=1 w=1
X219 a_13163_45724# a_13259_45724# VDD VDD sky130_fd_pr__pfet_01v8_hvt ad=0.06615 pd=0.735 as=0.14075 ps=1.325 w=0.42 l=0.15
X220 C9_P_btm a_4958_30871# VCM VSS sky130_fd_pr__nfet_01v8_lvt ad=1.32 pd=8.33 as=1.32 ps=8.33 w=8 l=0.15
X221 a_n2012_44484# a_n2129_44697# VSS VSS sky130_fd_pr__nfet_01v8 ad=0.066 pd=0.745 as=0.2205 ps=1.89 w=0.42 l=0.15
X222 VDAC_P VSS sky130_fd_pr__cap_mim_m3_1 l=1 w=1
X223 a_11599_46634# a_15682_46116# VSS VSS sky130_fd_pr__nfet_01v8 ad=0.0588 pd=0.7 as=0.0588 ps=0.7 w=0.42 l=0.15
X224 VDAC_P C10_P_btm sky130_fd_pr__cap_mim_m3_1 l=1 w=1
X225 a_8487_44056# a_4223_44672# a_8415_44056# VDD sky130_fd_pr__pfet_01v8_hvt ad=0.0693 pd=0.75 as=0.0441 ps=0.63 w=0.42 l=0.15
X226 a_13940_44484# a_13556_45296# VSS VSS sky130_fd_pr__nfet_01v8 ad=0.091 pd=0.93 as=0.26 ps=1.45 w=0.65 l=0.15
X227 VDAC_P a_3422_30871# VCM VSS sky130_fd_pr__nfet_01v8_lvt ad=1.32 pd=8.33 as=2.48 ps=16.62 w=8 l=0.15
X228 VSS a_1414_42308# a_1525_44260# VSS sky130_fd_pr__nfet_01v8 ad=0.10725 pd=0.98 as=0.06825 ps=0.86 w=0.65 l=0.15
X229 VDAC_P C10_P_btm sky130_fd_pr__cap_mim_m3_1 l=1 w=1
X230 VDAC_N C10_N_btm sky130_fd_pr__cap_mim_m3_1 l=1 w=1
X231 VDAC_N C10_N_btm sky130_fd_pr__cap_mim_m3_1 l=1 w=1
X232 VDAC_N C9_N_btm sky130_fd_pr__cap_mim_m3_1 l=1 w=1
X233 VDAC_P C4_P_btm sky130_fd_pr__cap_mim_m3_1 l=1 w=1
X234 a_16434_46660# a_16388_46812# VSS VSS sky130_fd_pr__nfet_01v8 ad=0.0693 pd=0.75 as=0.11285 ps=1.045 w=0.42 l=0.15
X235 VDAC_P C10_P_btm sky130_fd_pr__cap_mim_m3_1 l=1 w=1
X236 VDAC_P C7_P_btm sky130_fd_pr__cap_mim_m3_1 l=1 w=1
X237 a_3315_47570# a_n1151_42308# a_2952_47436# VSS sky130_fd_pr__nfet_01v8 ad=0.0693 pd=0.75 as=0.09975 ps=0.895 w=0.42 l=0.15
X238 a_2680_45002# a_1823_45246# a_2903_45348# VSS sky130_fd_pr__nfet_01v8 ad=0.10725 pd=0.98 as=0.10725 ps=0.98 w=0.65 l=0.15
X239 a_1307_43914# a_2779_44458# VDD VDD sky130_fd_pr__pfet_01v8_hvt ad=0.14 pd=1.28 as=0.3 ps=2.6 w=1 l=0.15
X240 VSS a_n1630_35242# a_18194_35068# VSS sky130_fd_pr__nfet_01v8 ad=0.169 pd=1.82 as=0.08775 ps=0.92 w=0.65 l=0.15
X241 VDAC_P C9_P_btm sky130_fd_pr__cap_mim_m3_1 l=1 w=1
X242 VDAC_N C10_N_btm sky130_fd_pr__cap_mim_m3_1 l=1 w=1
X243 a_22731_47423# SMPL_ON_N VDD VDD sky130_fd_pr__pfet_01v8_hvt ad=0.2054 pd=2.1 as=0.11455 ps=1.08 w=0.79 l=0.15
X244 VDAC_N C10_N_btm sky130_fd_pr__cap_mim_m3_1 l=1 w=1
X245 VDD a_1307_43914# a_3681_42891# VDD sky130_fd_pr__pfet_01v8_hvt ad=0.0693 pd=0.75 as=0.1176 ps=1.4 w=0.42 l=0.15
X246 a_n863_45724# a_1667_45002# VSS VSS sky130_fd_pr__nfet_01v8 ad=0.0567 pd=0.69 as=0.1092 ps=1.36 w=0.42 l=0.15
X247 VDAC_N C9_N_btm sky130_fd_pr__cap_mim_m3_1 l=1 w=1
X248 VDAC_N C7_N_btm sky130_fd_pr__cap_mim_m3_1 l=1 w=1
X249 VDAC_N C7_N_btm sky130_fd_pr__cap_mim_m3_1 l=1 w=1
X250 a_22521_40599# COMP_P VDD VDD sky130_fd_pr__pfet_01v8_hvt ad=0.135 pd=1.27 as=0.26 ps=2.52 w=1 l=0.15
X251 VDAC_N C9_N_btm sky130_fd_pr__cap_mim_m3_1 l=1 w=1
X252 VDAC_P C8_P_btm sky130_fd_pr__cap_mim_m3_1 l=1 w=1
X253 VDD a_11459_47204# DATA[5] VDD sky130_fd_pr__pfet_01v8_hvt ad=0.14 pd=1.28 as=0.14 ps=1.28 w=1 l=0.15
X254 a_4646_46812# a_6298_44484# VDD VDD sky130_fd_pr__pfet_01v8_hvt ad=0.14 pd=1.28 as=0.14 ps=1.28 w=1 l=0.15
X255 VSS a_8953_45002# a_2324_44458# VSS sky130_fd_pr__nfet_01v8 ad=0.0588 pd=0.7 as=0.0588 ps=0.7 w=0.42 l=0.15
X256 VDAC_N C10_N_btm sky130_fd_pr__cap_mim_m3_1 l=1 w=1
X257 VREF_GND a_18114_32519# C10_N_btm VSS sky130_fd_pr__nfet_01v8 ad=1.32 pd=8.33 as=1.32 ps=8.33 w=8 l=0.15
X258 VDAC_P C9_P_btm sky130_fd_pr__cap_mim_m3_1 l=1 w=1
X259 VSS VDD VSS VSS sky130_fd_pr__nfet_01v8 ad=0.143 pd=1.62 as=218.18214 ps=2.11206k w=0.55 l=0.59
X260 a_n4209_38216# a_n2302_37984# VDD VDD sky130_fd_pr__pfet_01v8_hvt ad=0.135 pd=1.27 as=0.1775 ps=1.355 w=1 l=0.15
X261 VDAC_P C10_P_btm sky130_fd_pr__cap_mim_m3_1 l=1 w=1
X262 VDAC_N C9_N_btm sky130_fd_pr__cap_mim_m3_1 l=1 w=1
X263 VDAC_N C9_N_btm sky130_fd_pr__cap_mim_m3_1 l=1 w=1
X264 VDAC_P C10_P_btm sky130_fd_pr__cap_mim_m3_1 l=1 w=1
X265 a_10467_46802# a_11599_46634# VDD VDD sky130_fd_pr__pfet_01v8_hvt ad=0.1664 pd=1.8 as=0.0864 ps=0.91 w=0.64 l=0.15
X266 VDD a_13747_46662# a_19862_44208# VDD sky130_fd_pr__pfet_01v8_hvt ad=0.26 pd=2.52 as=0.135 ps=1.27 w=1 l=0.15
X267 a_n2946_39866# a_n2956_39768# VSS VSS sky130_fd_pr__nfet_01v8 ad=0.08775 pd=0.92 as=0.169 ps=1.82 w=0.65 l=0.15
X268 a_n1013_45572# a_n1079_45724# a_n1099_45572# VSS sky130_fd_pr__nfet_01v8 ad=0.125125 pd=1.035 as=0.182 ps=1.86 w=0.65 l=0.15
X269 VDAC_P C7_P_btm sky130_fd_pr__cap_mim_m3_1 l=1 w=1
X270 VSS a_15279_43071# a_14579_43548# VSS sky130_fd_pr__nfet_01v8 ad=0.0754 pd=0.81 as=0.1352 ps=1.56 w=0.52 l=0.15
X271 DATA[3] a_7227_47204# VDD VDD sky130_fd_pr__pfet_01v8_hvt ad=0.14 pd=1.28 as=0.14 ps=1.28 w=1 l=0.15
X272 a_7584_44260# a_7542_44172# a_7281_43914# VSS sky130_fd_pr__nfet_01v8 ad=0.091 pd=0.93 as=0.089375 ps=0.925 w=0.65 l=0.15
X273 VDAC_N C9_N_btm sky130_fd_pr__cap_mim_m3_1 l=1 w=1
X274 VSS a_8049_45260# a_22959_45572# VSS sky130_fd_pr__nfet_01v8 ad=0.097 pd=0.975 as=0.1092 ps=1.36 w=0.42 l=0.15
X275 VDAC_N C7_N_btm sky130_fd_pr__cap_mim_m3_1 l=1 w=1
X276 a_n97_42460# a_19700_43370# VSS VSS sky130_fd_pr__nfet_01v8 ad=0.08775 pd=0.92 as=0.17225 ps=1.83 w=0.65 l=0.15
X277 VDAC_N C10_N_btm sky130_fd_pr__cap_mim_m3_1 l=1 w=1
X278 VDAC_P C10_P_btm sky130_fd_pr__cap_mim_m3_1 l=1 w=1
X279 VDAC_P C10_P_btm sky130_fd_pr__cap_mim_m3_1 l=1 w=1
X280 VDAC_N C9_N_btm sky130_fd_pr__cap_mim_m3_1 l=1 w=1
X281 VDAC_P C7_P_btm sky130_fd_pr__cap_mim_m3_1 l=1 w=1
X282 VDAC_P C2_P_btm sky130_fd_pr__cap_mim_m3_1 l=1 w=1
X283 VDD a_19647_42308# a_13258_32519# VDD sky130_fd_pr__pfet_01v8_hvt ad=0.265 pd=2.53 as=0.135 ps=1.27 w=1 l=0.15
X284 VDAC_P C9_P_btm sky130_fd_pr__cap_mim_m3_1 l=1 w=1
X285 VDAC_N C10_N_btm sky130_fd_pr__cap_mim_m3_1 l=1 w=1
X286 a_3754_39466# a_7754_39300# VSS sky130_fd_pr__res_high_po_0p35 l=18
X287 VDAC_N C9_N_btm sky130_fd_pr__cap_mim_m3_1 l=1 w=1
X288 VDAC_N C10_N_btm sky130_fd_pr__cap_mim_m3_1 l=1 w=1
X289 VDAC_P C8_P_btm sky130_fd_pr__cap_mim_m3_1 l=1 w=1
X290 VSS VSS sky130_fd_pr__cap_mim_m3_1 l=1 w=1
X291 VDD a_16751_45260# a_6171_45002# VDD sky130_fd_pr__pfet_01v8_hvt ad=0.14825 pd=1.34 as=0.275 ps=2.55 w=1 l=0.15
X292 VSS a_2952_47436# a_2747_46873# VSS sky130_fd_pr__nfet_01v8 ad=0.11285 pd=1.045 as=0.169 ps=1.82 w=0.65 l=0.15
X293 VDAC_P C10_P_btm sky130_fd_pr__cap_mim_m3_1 l=1 w=1
X294 VDAC_N C9_N_btm sky130_fd_pr__cap_mim_m3_1 l=1 w=1
X295 a_18326_43940# a_18079_43940# VDD VDD sky130_fd_pr__pfet_01v8_hvt ad=0.26 pd=2.52 as=0.14075 ps=1.325 w=1 l=0.15
X296 VDAC_N C10_N_btm sky130_fd_pr__cap_mim_m3_1 l=1 w=1
X297 VDAC_P C10_P_btm sky130_fd_pr__cap_mim_m3_1 l=1 w=1
X298 VDAC_N C0_N_btm sky130_fd_pr__cap_mim_m3_1 l=1 w=1
X299 VDAC_P C10_P_btm sky130_fd_pr__cap_mim_m3_1 l=1 w=1
X300 a_9248_44260# a_8270_45546# VSS VSS sky130_fd_pr__nfet_01v8 ad=0.091 pd=0.93 as=0.26 ps=1.45 w=0.65 l=0.15
X301 VDAC_P C9_P_btm sky130_fd_pr__cap_mim_m3_1 l=1 w=1
X302 a_3503_45724# a_3775_45552# a_3733_45822# VDD sky130_fd_pr__pfet_01v8_hvt ad=0.1092 pd=1.36 as=0.0441 ps=0.63 w=0.42 l=0.15
X303 VDAC_P C10_P_btm sky130_fd_pr__cap_mim_m3_1 l=1 w=1
X304 VDAC_N C8_N_btm sky130_fd_pr__cap_mim_m3_1 l=1 w=1
X305 VDAC_N C9_N_btm sky130_fd_pr__cap_mim_m3_1 l=1 w=1
X306 VDAC_P C10_P_btm sky130_fd_pr__cap_mim_m3_1 l=1 w=1
X307 a_n2017_45002# a_19987_42826# VDD VDD sky130_fd_pr__pfet_01v8_hvt ad=0.135 pd=1.27 as=0.32 ps=2.64 w=1 l=0.15
X308 VDAC_N C10_N_btm sky130_fd_pr__cap_mim_m3_1 l=1 w=1
X309 a_288_46660# a_171_46873# VSS VSS sky130_fd_pr__nfet_01v8 ad=0.066 pd=0.745 as=0.2205 ps=1.89 w=0.42 l=0.15
X310 VDAC_P VSS sky130_fd_pr__cap_mim_m3_1 l=1 w=1
X311 VDD a_196_42282# a_n3674_37592# VDD sky130_fd_pr__pfet_01v8_hvt ad=0.149 pd=1.325 as=0.135 ps=1.27 w=1 l=0.15
X312 VDAC_P C9_P_btm sky130_fd_pr__cap_mim_m3_1 l=1 w=1
X313 a_10037_46155# a_9804_47204# a_9823_46155# VDD sky130_fd_pr__pfet_01v8_hvt ad=0.07665 pd=0.785 as=0.1932 ps=1.34 w=0.42 l=0.15
X314 a_20075_46420# a_16327_47482# VDD VDD sky130_fd_pr__pfet_01v8_hvt ad=0.0567 pd=0.69 as=0.0819 ps=0.81 w=0.42 l=0.15
X315 VDAC_P C10_P_btm sky130_fd_pr__cap_mim_m3_1 l=1 w=1
X316 VDAC_P C9_P_btm sky130_fd_pr__cap_mim_m3_1 l=1 w=1
X317 VDAC_N C8_N_btm sky130_fd_pr__cap_mim_m3_1 l=1 w=1
X318 a_n4064_39072# a_n4334_39392# VDD VDD sky130_fd_pr__pfet_01v8_hvt ad=0.14 pd=1.28 as=0.14 ps=1.28 w=1 l=0.15
X319 a_1149_42558# a_961_42354# a_1067_42314# VDD sky130_fd_pr__pfet_01v8_hvt ad=0.0441 pd=0.63 as=0.1092 ps=1.36 w=0.42 l=0.15
X320 VDAC_N C10_N_btm sky130_fd_pr__cap_mim_m3_1 l=1 w=1
X321 VSS a_14513_46634# a_14447_46660# VSS sky130_fd_pr__nfet_01v8 ad=0.1449 pd=1.11 as=0.0693 ps=0.75 w=0.42 l=0.15
X322 VDAC_P C10_P_btm sky130_fd_pr__cap_mim_m3_1 l=1 w=1
X323 a_13569_47204# a_13381_47204# a_13487_47204# VDD sky130_fd_pr__pfet_01v8_hvt ad=0.19 pd=1.38 as=0.26 ps=2.52 w=1 l=0.15
X324 VDAC_N C8_N_btm sky130_fd_pr__cap_mim_m3_1 l=1 w=1
X325 VDAC_N C8_N_btm sky130_fd_pr__cap_mim_m3_1 l=1 w=1
X326 VDD a_14840_46494# a_15015_46420# VDD sky130_fd_pr__pfet_01v8_hvt ad=0.1134 pd=1.38 as=0.0567 ps=0.69 w=0.42 l=0.15
X327 VDAC_P C9_P_btm sky130_fd_pr__cap_mim_m3_1 l=1 w=1
X328 C6_P_btm a_n3565_39304# VREF VDD sky130_fd_pr__pfet_01v8_lvt ad=2.32 pd=16.58 as=1.16 ps=8.29 w=8 l=0.35
X329 VDD VSS VDD VDD sky130_fd_pr__pfet_01v8_hvt ad=0.2262 pd=2.26 as=0 ps=0 w=0.87 l=1.05
X330 VDAC_P C8_P_btm sky130_fd_pr__cap_mim_m3_1 l=1 w=1
X331 a_2324_44458# a_8953_45002# VSS VSS sky130_fd_pr__nfet_01v8 ad=0.0588 pd=0.7 as=0.1113 ps=1.37 w=0.42 l=0.15
X332 a_14537_43396# a_14358_43442# VSS VSS sky130_fd_pr__nfet_01v8 ad=0.221 pd=1.98 as=0.08775 ps=0.92 w=0.65 l=0.15
X333 VDD a_14955_47212# a_10227_46804# VDD sky130_fd_pr__pfet_01v8_hvt ad=0.265 pd=2.53 as=0.135 ps=1.27 w=1 l=0.15
X334 a_n3565_39590# a_n2946_39866# VDD VDD sky130_fd_pr__pfet_01v8_hvt ad=0.135 pd=1.27 as=0.135 ps=1.27 w=1 l=0.15
X335 VDAC_P C10_P_btm sky130_fd_pr__cap_mim_m3_1 l=1 w=1
X336 VDD a_7754_40130# a_11206_38545# VDD sky130_fd_pr__pfet_01v8 ad=2.32 pd=16.58 as=2.32 ps=16.58 w=8 l=0.5
X337 VDAC_N C8_N_btm sky130_fd_pr__cap_mim_m3_1 l=1 w=1
X338 VSS VSS sky130_fd_pr__cap_mim_m3_1 l=1 w=1
X339 a_n901_43156# a_n1613_43370# VDD VDD sky130_fd_pr__pfet_01v8_hvt ad=0.0567 pd=0.69 as=0.0819 ps=0.81 w=0.42 l=0.15
X340 a_n2438_43548# a_949_44458# VSS VSS sky130_fd_pr__nfet_01v8 ad=0.0588 pd=0.7 as=0.0588 ps=0.7 w=0.42 l=0.15