* NGSPICE file created from SAR_ADC_12bit.ext - technology: sky130A

.subckt sky130_fd_pr__nfet_01v8_F5PS5H a_n221_n200# a_n129_n200# a_63_n200# a_111_222#
+ a_n33_n200# a_15_n288# a_n81_222# a_n177_n288# a_159_n200# a_n323_n374#
X0 a_n33_n200# a_n81_222# a_n129_n200# a_n323_n374# sky130_fd_pr__nfet_01v8 ad=0.33 pd=2.33 as=0.33 ps=2.33 w=2 l=0.15
X1 a_159_n200# a_111_222# a_63_n200# a_n323_n374# sky130_fd_pr__nfet_01v8 ad=0.62 pd=4.62 as=0.33 ps=2.33 w=2 l=0.15
X2 a_63_n200# a_15_n288# a_n33_n200# a_n323_n374# sky130_fd_pr__nfet_01v8 ad=0.33 pd=2.33 as=0.33 ps=2.33 w=2 l=0.15
X3 a_n129_n200# a_n177_n288# a_n221_n200# a_n323_n374# sky130_fd_pr__nfet_01v8 ad=0.33 pd=2.33 as=0.62 ps=4.62 w=2 l=0.15
.ends

.subckt sky130_fd_sc_hd__inv_1 A VGND VNB VPB VPWR Y
X0 Y A VGND VNB sky130_fd_pr__nfet_01v8 ad=0.169 pd=1.82 as=0.169 ps=1.82 w=0.65 l=0.15
X1 Y A VPWR VPB sky130_fd_pr__pfet_01v8_hvt ad=0.26 pd=2.52 as=0.26 ps=2.52 w=1 l=0.15
.ends

.subckt sky130_fd_pr__pfet_01v8_hvt_U47ZGH a_n221_n200# a_n129_n200# a_63_n200# a_15_n297#
+ a_n81_231# w_n359_n419# a_n177_n297# a_n33_n200# a_159_n200# a_111_231#
X0 a_n33_n200# a_n81_231# a_n129_n200# w_n359_n419# sky130_fd_pr__pfet_01v8_hvt ad=0.33 pd=2.33 as=0.33 ps=2.33 w=2 l=0.15
X1 a_159_n200# a_111_231# a_63_n200# w_n359_n419# sky130_fd_pr__pfet_01v8_hvt ad=0.62 pd=4.62 as=0.33 ps=2.33 w=2 l=0.15
X2 a_63_n200# a_15_n297# a_n33_n200# w_n359_n419# sky130_fd_pr__pfet_01v8_hvt ad=0.33 pd=2.33 as=0.33 ps=2.33 w=2 l=0.15
X3 a_n129_n200# a_n177_n297# a_n221_n200# w_n359_n419# sky130_fd_pr__pfet_01v8_hvt ad=0.33 pd=2.33 as=0.62 ps=4.62 w=2 l=0.15
.ends

.subckt sky130_fd_pr__pfet_01v8_lvt_6VC8VM w_n425_n284# a_229_n64# a_29_n161# a_n29_n64#
+ a_n287_n64# a_n229_n161#
X0 a_n29_n64# a_n229_n161# a_n287_n64# w_n425_n284# sky130_fd_pr__pfet_01v8_lvt ad=0.145 pd=1.29 as=0.29 ps=2.58 w=1 l=1
X1 a_229_n64# a_29_n161# a_n29_n64# w_n425_n284# sky130_fd_pr__pfet_01v8_lvt ad=0.29 pd=2.58 as=0.145 ps=1.29 w=1 l=1
.ends

.subckt sky130_fd_pr__nfet_01v8_VGBCTM a_15_n800# a_n175_n974# a_n73_n800# a_n33_n888#
X0 a_15_n800# a_n33_n888# a_n73_n800# a_n175_n974# sky130_fd_pr__nfet_01v8 ad=2.32 pd=16.58 as=2.32 ps=16.58 w=8 l=0.15
.ends

.subckt sky130_fd_pr__pfet_01v8_XPKDX6 a_114_21# a_n180_1349# a_n376_n1415# a_n225_118#
+ a_n225_n1318# a_69_118# a_363_n1318# a_114_n87# a_167_118# a_n278_n87# a_n323_118#
+ a_212_n1415# a_n421_n1318# a_265_118# a_16_1349# a_n127_n1318# a_265_n1318# a_n421_118#
+ a_310_n87# a_363_118# a_n29_n1318# a_n82_21# a_16_n1415# a_212_1349# a_n323_n1318#
+ a_n180_n1415# a_n29_118# a_167_n1318# a_310_21# a_n127_118# a_69_n1318# a_n376_1349#
+ a_n82_n87# w_n559_n1537# a_n278_21#
X0 a_n323_n1318# a_n376_n1415# a_n421_n1318# w_n559_n1537# sky130_fd_pr__pfet_01v8 ad=0.87 pd=6.29 as=1.74 ps=12.58 w=6 l=0.2
X1 a_n127_n1318# a_n180_n1415# a_n225_n1318# w_n559_n1537# sky130_fd_pr__pfet_01v8 ad=0.87 pd=6.29 as=0.87 ps=6.29 w=6 l=0.2
X2 a_n127_118# a_n180_1349# a_n225_118# w_n559_n1537# sky130_fd_pr__pfet_01v8 ad=0.87 pd=6.29 as=0.87 ps=6.29 w=6 l=0.2
X3 a_265_n1318# a_212_n1415# a_167_n1318# w_n559_n1537# sky130_fd_pr__pfet_01v8 ad=0.87 pd=6.29 as=0.87 ps=6.29 w=6 l=0.2
X4 a_69_118# a_16_1349# a_n29_118# w_n559_n1537# sky130_fd_pr__pfet_01v8 ad=0.87 pd=6.29 as=0.87 ps=6.29 w=6 l=0.2
X5 a_167_118# a_114_21# a_69_118# w_n559_n1537# sky130_fd_pr__pfet_01v8 ad=0.87 pd=6.29 as=0.87 ps=6.29 w=6 l=0.2
X6 a_n225_118# a_n278_21# a_n323_118# w_n559_n1537# sky130_fd_pr__pfet_01v8 ad=0.87 pd=6.29 as=0.87 ps=6.29 w=6 l=0.2
X7 a_n225_n1318# a_n278_n87# a_n323_n1318# w_n559_n1537# sky130_fd_pr__pfet_01v8 ad=0.87 pd=6.29 as=0.87 ps=6.29 w=6 l=0.2
X8 a_69_n1318# a_16_n1415# a_n29_n1318# w_n559_n1537# sky130_fd_pr__pfet_01v8 ad=0.87 pd=6.29 as=0.87 ps=6.29 w=6 l=0.2
X9 a_n29_118# a_n82_21# a_n127_118# w_n559_n1537# sky130_fd_pr__pfet_01v8 ad=0.87 pd=6.29 as=0.87 ps=6.29 w=6 l=0.2
X10 a_265_118# a_212_1349# a_167_118# w_n559_n1537# sky130_fd_pr__pfet_01v8 ad=0.87 pd=6.29 as=0.87 ps=6.29 w=6 l=0.2
X11 a_167_n1318# a_114_n87# a_69_n1318# w_n559_n1537# sky130_fd_pr__pfet_01v8 ad=0.87 pd=6.29 as=0.87 ps=6.29 w=6 l=0.2
X12 a_363_n1318# a_310_n87# a_265_n1318# w_n559_n1537# sky130_fd_pr__pfet_01v8 ad=1.74 pd=12.58 as=0.87 ps=6.29 w=6 l=0.2
X13 a_n323_118# a_n376_1349# a_n421_118# w_n559_n1537# sky130_fd_pr__pfet_01v8 ad=0.87 pd=6.29 as=1.74 ps=12.58 w=6 l=0.2
X14 a_n29_n1318# a_n82_n87# a_n127_n1318# w_n559_n1537# sky130_fd_pr__pfet_01v8 ad=0.87 pd=6.29 as=0.87 ps=6.29 w=6 l=0.2
X15 a_363_118# a_310_21# a_265_118# w_n559_n1537# sky130_fd_pr__pfet_01v8 ad=1.74 pd=12.58 as=0.87 ps=6.29 w=6 l=0.2
.ends

.subckt sky130_fd_pr__nfet_01v8_64Z3AY a_15_n131# a_n175_n243# a_n33_91# a_n73_n131#
X0 a_15_n131# a_n33_91# a_n73_n131# a_n175_n243# sky130_fd_pr__nfet_01v8 ad=0.29 pd=2.58 as=0.29 ps=2.58 w=1 l=0.15
.ends

.subckt sky130_fd_pr__nfet_03v3_nvt_Y5TA2C a_129_n19# a_n29_n19# a_n187_n19# a_n321_n241#
+ a_29_n107# a_n129_n107#
X0 a_129_n19# a_29_n107# a_n29_n19# a_n321_n241# sky130_fd_pr__nfet_03v3_nvt ad=0.145 pd=1.58 as=0.0725 ps=0.79 w=0.5 l=0.5
X1 a_n29_n19# a_n129_n107# a_n187_n19# a_n321_n241# sky130_fd_pr__nfet_03v3_nvt ad=0.0725 pd=0.79 as=0.145 ps=1.58 w=0.5 l=0.5
.ends

.subckt sky130_fd_pr__res_high_po_0p35_699HP9 a_n865_1784# a_463_n2216# a_463_1784#
+ a_n699_1784# a_297_1784# a_n533_n2216# a_n35_n2216# a_795_n2216# a_795_1784# a_n201_1784#
+ a_297_n2216# a_629_1784# a_n35_1784# a_n865_n2216# a_629_n2216# a_n367_n2216# a_n533_1784#
+ a_131_n2216# a_131_1784# a_n367_1784# a_n995_n2346# a_n201_n2216# a_n699_n2216#
X0 a_n35_1784# a_n35_n2216# a_n995_n2346# sky130_fd_pr__res_high_po_0p35 l=18
X1 a_n367_1784# a_n367_n2216# a_n995_n2346# sky130_fd_pr__res_high_po_0p35 l=18
X2 a_297_1784# a_297_n2216# a_n995_n2346# sky130_fd_pr__res_high_po_0p35 l=18
X3 a_n865_1784# a_n865_n2216# a_n995_n2346# sky130_fd_pr__res_high_po_0p35 l=18
X4 a_795_1784# a_795_n2216# a_n995_n2346# sky130_fd_pr__res_high_po_0p35 l=18
X5 a_n201_1784# a_n201_n2216# a_n995_n2346# sky130_fd_pr__res_high_po_0p35 l=18
X6 a_n699_1784# a_n699_n2216# a_n995_n2346# sky130_fd_pr__res_high_po_0p35 l=18
X7 a_131_1784# a_131_n2216# a_n995_n2346# sky130_fd_pr__res_high_po_0p35 l=18
X8 a_n533_1784# a_n533_n2216# a_n995_n2346# sky130_fd_pr__res_high_po_0p35 l=18
X9 a_463_1784# a_463_n2216# a_n995_n2346# sky130_fd_pr__res_high_po_0p35 l=18
X10 a_629_1784# a_629_n2216# a_n995_n2346# sky130_fd_pr__res_high_po_0p35 l=18
.ends

.subckt sky130_fd_pr__pfet_01v8_3QWEX8 a_114_21# a_n180_1349# a_n376_n1415# a_n225_118#
+ a_n225_n1318# a_69_118# a_363_n1318# a_114_n87# a_167_118# a_n278_n87# a_n323_118#
+ a_212_n1415# a_n421_n1318# a_265_118# a_16_1349# a_n127_n1318# a_265_n1318# a_n421_118#
+ a_310_n87# a_363_118# a_n29_n1318# a_n82_21# a_16_n1415# a_212_1349# a_n323_n1318#
+ a_n180_n1415# a_n29_118# a_167_n1318# a_310_21# a_n127_118# a_69_n1318# a_n376_1349#
+ a_n82_n87# w_n559_n1537# a_n278_21#
X0 a_n323_n1318# a_n376_n1415# a_n421_n1318# w_n559_n1537# sky130_fd_pr__pfet_01v8 ad=0.87 pd=6.29 as=1.74 ps=12.58 w=6 l=0.2
X1 a_n127_n1318# a_n180_n1415# a_n225_n1318# w_n559_n1537# sky130_fd_pr__pfet_01v8 ad=0.87 pd=6.29 as=0.87 ps=6.29 w=6 l=0.2
X2 a_n127_118# a_n180_1349# a_n225_118# w_n559_n1537# sky130_fd_pr__pfet_01v8 ad=0.87 pd=6.29 as=0.87 ps=6.29 w=6 l=0.2
X3 a_265_n1318# a_212_n1415# a_167_n1318# w_n559_n1537# sky130_fd_pr__pfet_01v8 ad=0.87 pd=6.29 as=0.87 ps=6.29 w=6 l=0.2
X4 a_69_118# a_16_1349# a_n29_118# w_n559_n1537# sky130_fd_pr__pfet_01v8 ad=0.87 pd=6.29 as=0.87 ps=6.29 w=6 l=0.2
X5 a_167_118# a_114_21# a_69_118# w_n559_n1537# sky130_fd_pr__pfet_01v8 ad=0.87 pd=6.29 as=0.87 ps=6.29 w=6 l=0.2
X6 a_n225_118# a_n278_21# a_n323_118# w_n559_n1537# sky130_fd_pr__pfet_01v8 ad=0.87 pd=6.29 as=0.87 ps=6.29 w=6 l=0.2
X7 a_n225_n1318# a_n278_n87# a_n323_n1318# w_n559_n1537# sky130_fd_pr__pfet_01v8 ad=0.87 pd=6.29 as=0.87 ps=6.29 w=6 l=0.2
X8 a_69_n1318# a_16_n1415# a_n29_n1318# w_n559_n1537# sky130_fd_pr__pfet_01v8 ad=0.87 pd=6.29 as=0.87 ps=6.29 w=6 l=0.2
X9 a_n29_118# a_n82_21# a_n127_118# w_n559_n1537# sky130_fd_pr__pfet_01v8 ad=0.87 pd=6.29 as=0.87 ps=6.29 w=6 l=0.2
X10 a_265_118# a_212_1349# a_167_118# w_n559_n1537# sky130_fd_pr__pfet_01v8 ad=0.87 pd=6.29 as=0.87 ps=6.29 w=6 l=0.2
X11 a_167_n1318# a_114_n87# a_69_n1318# w_n559_n1537# sky130_fd_pr__pfet_01v8 ad=0.87 pd=6.29 as=0.87 ps=6.29 w=6 l=0.2
X12 a_363_n1318# a_310_n87# a_265_n1318# w_n559_n1537# sky130_fd_pr__pfet_01v8 ad=1.74 pd=12.58 as=0.87 ps=6.29 w=6 l=0.2
X13 a_n323_118# a_n376_1349# a_n421_118# w_n559_n1537# sky130_fd_pr__pfet_01v8 ad=0.87 pd=6.29 as=1.74 ps=12.58 w=6 l=0.2
X14 a_n29_n1318# a_n82_n87# a_n127_n1318# w_n559_n1537# sky130_fd_pr__pfet_01v8 ad=0.87 pd=6.29 as=0.87 ps=6.29 w=6 l=0.2
X15 a_363_118# a_310_21# a_265_118# w_n559_n1537# sky130_fd_pr__pfet_01v8 ad=1.74 pd=12.58 as=0.87 ps=6.29 w=6 l=0.2
.ends

.subckt sky130_fd_pr__nfet_01v8_7CP4KT a_n405_n200# a_15_n200# a_343_n200# a_n287_n200#
+ a_387_n288# a_177_222# a_225_n200# a_n599_n374# a_n497_n200# a_n243_222# a_435_n200#
+ a_n195_n200# a_n453_n288# a_133_n200# a_n77_n200# a_n33_n288#
X0 a_15_n200# a_n33_n288# a_n77_n200# a_n599_n374# sky130_fd_pr__nfet_01v8 ad=0.62 pd=4.62 as=0.62 ps=4.62 w=2 l=0.15
X1 a_435_n200# a_387_n288# a_343_n200# a_n599_n374# sky130_fd_pr__nfet_01v8 ad=0.62 pd=4.62 as=0.62 ps=4.62 w=2 l=0.15
X2 a_225_n200# a_177_222# a_133_n200# a_n599_n374# sky130_fd_pr__nfet_01v8 ad=0.62 pd=4.62 as=0.62 ps=4.62 w=2 l=0.15
X3 a_n195_n200# a_n243_222# a_n287_n200# a_n599_n374# sky130_fd_pr__nfet_01v8 ad=0.62 pd=4.62 as=0.62 ps=4.62 w=2 l=0.15
X4 a_n405_n200# a_n453_n288# a_n497_n200# a_n599_n374# sky130_fd_pr__nfet_01v8 ad=0.62 pd=4.62 as=0.62 ps=4.62 w=2 l=0.15
.ends

.subckt sky130_fd_pr__nfet_01v8_lvt_56HSEP a_15_n278# a_n81_212# a_n177_n278# a_n221_n190#
+ a_n129_n190# a_63_n190# a_n323_n364# a_n33_n190# a_111_212# a_159_n190#
X0 a_n129_n190# a_n177_n278# a_n221_n190# a_n323_n364# sky130_fd_pr__nfet_01v8_lvt ad=0.3135 pd=2.23 as=0.589 ps=4.42 w=1.9 l=0.15
X1 a_n33_n190# a_n81_212# a_n129_n190# a_n323_n364# sky130_fd_pr__nfet_01v8_lvt ad=0.3135 pd=2.23 as=0.3135 ps=2.23 w=1.9 l=0.15
X2 a_159_n190# a_111_212# a_63_n190# a_n323_n364# sky130_fd_pr__nfet_01v8_lvt ad=0.589 pd=4.42 as=0.3135 ps=2.23 w=1.9 l=0.15
X3 a_63_n190# a_15_n278# a_n33_n190# a_n323_n364# sky130_fd_pr__nfet_01v8_lvt ad=0.3135 pd=2.23 as=0.3135 ps=2.23 w=1.9 l=0.15
.ends

.subckt sky130_fd_pr__pfet_01v8_LGS3BL a_n73_n64# a_n33_n161# a_15_n64# w_n211_n284#
X0 a_15_n64# a_n33_n161# a_n73_n64# w_n211_n284# sky130_fd_pr__pfet_01v8 ad=0.29 pd=2.58 as=0.29 ps=2.58 w=1 l=0.15
.ends

.subckt sky130_fd_pr__pfet_01v8_GCK2T6 a_708_n800# a_n222_n800# a_n1196_n800# a_n50_n897#
+ a_n866_n897# a_n1582_n800# a_50_n800# a_n380_n800# a_n1410_n897# a_866_n800# a_1252_n800#
+ a_1310_n897# a_n1740_n800# a_164_n800# a_222_n897# a_n1138_n897# a_n108_n800# a_n494_n800#
+ a_1410_n800# a_1038_n897# a_n322_n897# a_n1468_n800# a_322_n800# a_n1682_n897# a_n652_n800#
+ a_1138_n800# a_1582_n897# a_1524_n800# a_494_n897# a_436_n800# a_n594_n897# a_1682_n800#
+ a_n766_n800# a_594_n800# a_n1310_n800# a_980_n800# a_n924_n800# a_n1038_n800# a_766_n897#
+ w_n1878_n1019#
X0 a_n222_n800# a_n322_n897# a_n380_n800# w_n1878_n1019# sky130_fd_pr__pfet_01v8 ad=2.32 pd=16.58 as=2.32 ps=16.58 w=8 l=0.5
X1 a_594_n800# a_494_n897# a_436_n800# w_n1878_n1019# sky130_fd_pr__pfet_01v8 ad=2.32 pd=16.58 as=2.32 ps=16.58 w=8 l=0.5
X2 a_n1582_n800# a_n1682_n897# a_n1740_n800# w_n1878_n1019# sky130_fd_pr__pfet_01v8 ad=2.32 pd=16.58 as=2.32 ps=16.58 w=8 l=0.5
X3 a_322_n800# a_222_n897# a_164_n800# w_n1878_n1019# sky130_fd_pr__pfet_01v8 ad=2.32 pd=16.58 as=2.32 ps=16.58 w=8 l=0.5
X4 a_1682_n800# a_1582_n897# a_1524_n800# w_n1878_n1019# sky130_fd_pr__pfet_01v8 ad=2.32 pd=16.58 as=2.32 ps=16.58 w=8 l=0.5
X5 a_1410_n800# a_1310_n897# a_1252_n800# w_n1878_n1019# sky130_fd_pr__pfet_01v8 ad=2.32 pd=16.58 as=2.32 ps=16.58 w=8 l=0.5
X6 a_n1038_n800# a_n1138_n897# a_n1196_n800# w_n1878_n1019# sky130_fd_pr__pfet_01v8 ad=2.32 pd=16.58 as=2.32 ps=16.58 w=8 l=0.5
X7 a_1138_n800# a_1038_n897# a_980_n800# w_n1878_n1019# sky130_fd_pr__pfet_01v8 ad=2.32 pd=16.58 as=2.32 ps=16.58 w=8 l=0.5
X8 a_n766_n800# a_n866_n897# a_n924_n800# w_n1878_n1019# sky130_fd_pr__pfet_01v8 ad=2.32 pd=16.58 as=2.32 ps=16.58 w=8 l=0.5
X9 a_866_n800# a_766_n897# a_708_n800# w_n1878_n1019# sky130_fd_pr__pfet_01v8 ad=2.32 pd=16.58 as=2.32 ps=16.58 w=8 l=0.5
X10 a_n494_n800# a_n594_n897# a_n652_n800# w_n1878_n1019# sky130_fd_pr__pfet_01v8 ad=2.32 pd=16.58 as=2.32 ps=16.58 w=8 l=0.5
X11 a_50_n800# a_n50_n897# a_n108_n800# w_n1878_n1019# sky130_fd_pr__pfet_01v8 ad=2.32 pd=16.58 as=2.32 ps=16.58 w=8 l=0.5
X12 a_n1310_n800# a_n1410_n897# a_n1468_n800# w_n1878_n1019# sky130_fd_pr__pfet_01v8 ad=2.32 pd=16.58 as=2.32 ps=16.58 w=8 l=0.5
.ends

.subckt preamplifier IN_P IN_N OUT_N OUT_P EN CAL_P CAL_N VDD VSS
XXM12 m1_n1450_7580# OUT_P OUT_P m1_n414_8402# m1_n1450_7580# m1_n414_8402# m1_n414_8402#
+ m1_n414_8402# m1_n1450_7580# VSS sky130_fd_pr__nfet_01v8_F5PS5H
Xx1 EN VSS VSS VDD VDD x1/Y sky130_fd_sc_hd__inv_1
Xsky130_fd_pr__pfet_01v8_hvt_U47ZGH_0 m1_460_8710# OUT_N OUT_N VSS VSS VDD VSS m1_460_8710#
+ m1_460_8710# VSS sky130_fd_pr__pfet_01v8_hvt_U47ZGH
XXM15 VDD m1_n1450_7580# CAL_N m1_n3600_7580# m1_n2020_7010# CAL_P sky130_fd_pr__pfet_01v8_lvt_6VC8VM
XXM16 m1_2580_7820# VSS VSS EN sky130_fd_pr__nfet_01v8_VGBCTM
Xsky130_fd_pr__pfet_01v8_hvt_U47ZGH_1 m1_460_7540# OUT_P OUT_P VSS VSS VDD VSS m1_460_7540#
+ m1_460_7540# VSS sky130_fd_pr__pfet_01v8_hvt_U47ZGH
Xsky130_fd_pr__pfet_01v8_XPKDX6_0 IN_N IN_N IN_P m1_n2318_8074# m1_n2318_8074# m1_460_7540#
+ m1_n2318_8074# IN_P m1_n2318_8074# IN_P m1_460_7540# IN_P m1_n2318_8074# m1_460_7540#
+ IN_N m1_460_8710# m1_460_8710# m1_n2318_8074# IN_P m1_n2318_8074# m1_n2318_8074#
+ IN_N IN_P IN_N m1_460_8710# IN_P m1_n2318_8074# m1_n2318_8074# IN_N m1_460_7540#
+ m1_460_8710# IN_N IN_P VDD IN_N sky130_fd_pr__pfet_01v8_XPKDX6
XXM18 m1_n414_8402# VSS x1/Y VSS sky130_fd_pr__nfet_01v8_64Z3AY
XXM19 m1_n630_7350# VDD m1_n630_7350# VSS OUT_N OUT_P sky130_fd_pr__nfet_03v3_nvt_Y5TA2C
Xsky130_fd_pr__nfet_01v8_F5PS5H_0 m1_n2020_7010# OUT_N OUT_N m1_n414_8402# m1_n2020_7010#
+ m1_n414_8402# m1_n414_8402# m1_n414_8402# m1_n2020_7010# VSS sky130_fd_pr__nfet_01v8_F5PS5H
Xsky130_fd_pr__res_high_po_0p35_699HP9_0 m1_n890_7080# OUT_P m1_3030_9130# m1_3040_8130#
+ m1_3030_9130# m1_7050_8300# m1_7070_8630# m1_6990_9470# m1_n3230_9640# m1_3060_8460#
+ m1_7060_8960# m1_2580_7820# m1_3040_8790# m1_n414_8402# m1_6990_9470# m1_7050_8300#
+ m1_3040_8130# m1_7060_8960# m1_3040_8790# m1_3060_8460# VSS m1_7070_8630# OUT_N
+ sky130_fd_pr__res_high_po_0p35_699HP9
Xsky130_fd_pr__pfet_01v8_3QWEX8_0 IN_P IN_P IN_N m1_n2318_8074# m1_n2318_8074# m1_460_8710#
+ m1_n2318_8074# IN_N m1_n2318_8074# IN_N m1_460_8710# IN_N m1_n2318_8074# m1_460_8710#
+ IN_P m1_460_7540# m1_460_7540# m1_n2318_8074# IN_N m1_n2318_8074# m1_n2318_8074#
+ IN_P IN_N IN_P m1_460_7540# IN_N m1_n2318_8074# m1_n2318_8074# IN_P m1_460_8710#
+ m1_460_7540# IN_P IN_N VDD IN_P sky130_fd_pr__pfet_01v8_3QWEX8
Xsky130_fd_pr__nfet_01v8_7CP4KT_0 VSS m1_n890_7080# VSS VSS m1_n890_7080# m1_n890_7080#
+ m1_n630_7350# VSS VSS m1_n890_7080# VSS m1_n630_7350# m1_n890_7080# VSS VSS m1_n890_7080#
+ sky130_fd_pr__nfet_01v8_7CP4KT
XXM8 m1_n630_7350# m1_n630_7350# VSS VSS m1_n2020_7010# m1_n1450_7580# VSS VSS VSS
+ VSS sky130_fd_pr__nfet_01v8_lvt_56HSEP
Xsky130_fd_pr__pfet_01v8_LGS3BL_0 m1_n3230_9640# EN VDD VDD sky130_fd_pr__pfet_01v8_LGS3BL
Xsky130_fd_pr__pfet_01v8_GCK2T6_0 VDD m1_n2318_8074# VDD m1_n3230_9640# m1_n3230_9640#
+ VDD m1_n3230_9640# VDD m1_n3230_9640# m1_n2318_8074# VDD m1_n3230_9640# VDD VDD
+ m1_n3230_9640# m1_n3230_9640# VDD m1_n2318_8074# m1_n3600_7580# m1_n3230_9640# m1_n3230_9640#
+ VDD m1_n2318_8074# m1_n3230_9640# VDD m1_n414_8402# m1_n3230_9640# VDD m1_n3230_9640#
+ VDD m1_n3230_9640# VDD m1_n2318_8074# m1_n2318_8074# m1_n3600_7580# VDD VDD m1_n3600_7580#
+ m1_n3230_9640# VDD sky130_fd_pr__pfet_01v8_GCK2T6
.ends

.subckt sky130_ef_sc_hd__decap_12 VGND VPWR VPB VNB
X0 VPWR VGND VPWR VPB sky130_fd_pr__pfet_01v8_hvt ad=0.2262 pd=2.26 as=0.4524 ps=4.52 w=0.87 l=4.73
X1 VGND VPWR VGND VNB sky130_fd_pr__nfet_01v8 ad=0.143 pd=1.62 as=0.286 ps=3.24 w=0.55 l=4.73
.ends

.subckt sky130_fd_sc_hd__decap_3 VGND VNB VPB VPWR
X0 VPWR VGND VPWR VPB sky130_fd_pr__pfet_01v8_hvt ad=0.2262 pd=2.26 as=0.4524 ps=4.52 w=0.87 l=0.59
X1 VGND VPWR VGND VNB sky130_fd_pr__nfet_01v8 ad=0.143 pd=1.62 as=0.286 ps=3.24 w=0.55 l=0.59
.ends

.subckt sky130_fd_sc_hd__clkbuf_2 A VGND VNB VPB VPWR X
X0 VPWR A a_27_47# VPB sky130_fd_pr__pfet_01v8_hvt ad=0.1625 pd=1.325 as=0.265 ps=2.53 w=1 l=0.15
X1 VPWR a_27_47# X VPB sky130_fd_pr__pfet_01v8_hvt ad=0.26 pd=2.52 as=0.135 ps=1.27 w=1 l=0.15
X2 VGND A a_27_47# VNB sky130_fd_pr__nfet_01v8 ad=0.06825 pd=0.745 as=0.1113 ps=1.37 w=0.42 l=0.15
X3 X a_27_47# VPWR VPB sky130_fd_pr__pfet_01v8_hvt ad=0.135 pd=1.27 as=0.1625 ps=1.325 w=1 l=0.15
X4 X a_27_47# VGND VNB sky130_fd_pr__nfet_01v8 ad=0.0567 pd=0.69 as=0.06825 ps=0.745 w=0.42 l=0.15
X5 VGND a_27_47# X VNB sky130_fd_pr__nfet_01v8 ad=0.1092 pd=1.36 as=0.0567 ps=0.69 w=0.42 l=0.15
.ends

.subckt sky130_fd_sc_hd__decap_4 VGND VNB VPB VPWR
X0 VPWR VGND VPWR VPB sky130_fd_pr__pfet_01v8_hvt ad=0.2262 pd=2.26 as=0.4524 ps=4.52 w=0.87 l=1.05
X1 VGND VPWR VGND VNB sky130_fd_pr__nfet_01v8 ad=0.143 pd=1.62 as=0.286 ps=3.24 w=0.55 l=1.05
.ends

.subckt sky130_fd_sc_hd__inv_2 A VGND VNB VPB VPWR Y
X0 Y A VPWR VPB sky130_fd_pr__pfet_01v8_hvt ad=0.135 pd=1.27 as=0.26 ps=2.52 w=1 l=0.15
X1 VGND A Y VNB sky130_fd_pr__nfet_01v8 ad=0.169 pd=1.82 as=0.08775 ps=0.92 w=0.65 l=0.15
X2 Y A VGND VNB sky130_fd_pr__nfet_01v8 ad=0.08775 pd=0.92 as=0.169 ps=1.82 w=0.65 l=0.15
X3 VPWR A Y VPB sky130_fd_pr__pfet_01v8_hvt ad=0.26 pd=2.52 as=0.135 ps=1.27 w=1 l=0.15
.ends

.subckt sky130_fd_sc_hd__mux2_1 A0 A1 S VGND VNB VPB VPWR X
X0 VPWR a_505_21# a_535_374# VPB sky130_fd_pr__pfet_01v8_hvt ad=0.0693 pd=0.75 as=0.0441 ps=0.63 w=0.42 l=0.15
X1 a_505_21# S VPWR VPB sky130_fd_pr__pfet_01v8_hvt ad=0.1176 pd=1.4 as=0.0693 ps=0.75 w=0.42 l=0.15
X2 a_218_374# S VPWR VPB sky130_fd_pr__pfet_01v8_hvt ad=0.07665 pd=0.785 as=0.15835 ps=1.395 w=0.42 l=0.15
X3 VGND a_505_21# a_439_47# VNB sky130_fd_pr__nfet_01v8 ad=0.1449 pd=1.11 as=0.0693 ps=0.75 w=0.42 l=0.15
X4 a_76_199# A0 a_218_374# VPB sky130_fd_pr__pfet_01v8_hvt ad=0.1932 pd=1.34 as=0.07665 ps=0.785 w=0.42 l=0.15
X5 a_505_21# S VGND VNB sky130_fd_pr__nfet_01v8 ad=0.1092 pd=1.36 as=0.1449 ps=1.11 w=0.42 l=0.15
X6 a_439_47# A0 a_76_199# VNB sky130_fd_pr__nfet_01v8 ad=0.0693 pd=0.75 as=0.09975 ps=0.895 w=0.42 l=0.15
X7 a_535_374# A1 a_76_199# VPB sky130_fd_pr__pfet_01v8_hvt ad=0.0441 pd=0.63 as=0.1932 ps=1.34 w=0.42 l=0.15
X8 a_76_199# A1 a_218_47# VNB sky130_fd_pr__nfet_01v8 ad=0.09975 pd=0.895 as=0.0693 ps=0.75 w=0.42 l=0.15
X9 a_218_47# S VGND VNB sky130_fd_pr__nfet_01v8 ad=0.0693 pd=0.75 as=0.11285 ps=1.045 w=0.42 l=0.15
X10 VPWR a_76_199# X VPB sky130_fd_pr__pfet_01v8_hvt ad=0.15835 pd=1.395 as=0.26 ps=2.52 w=1 l=0.15
X11 VGND a_76_199# X VNB sky130_fd_pr__nfet_01v8 ad=0.11285 pd=1.045 as=0.169 ps=1.82 w=0.65 l=0.15
.ends

.subckt sky130_fd_sc_hd__o32a_1 A1 A2 A3 B1 B2 VGND VNB VPB VPWR X
X0 a_77_199# B2 a_227_47# VNB sky130_fd_pr__nfet_01v8 ad=0.13325 pd=1.06 as=0.12675 ps=1.04 w=0.65 l=0.15
X1 a_323_297# A2 a_227_297# VPB sky130_fd_pr__pfet_01v8_hvt ad=0.195 pd=1.39 as=0.165 ps=1.33 w=1 l=0.15
X2 a_227_297# A1 VPWR VPB sky130_fd_pr__pfet_01v8_hvt ad=0.165 pd=1.33 as=0.135 ps=1.27 w=1 l=0.15
X3 a_227_47# B1 a_77_199# VNB sky130_fd_pr__nfet_01v8 ad=0.1885 pd=1.88 as=0.13325 ps=1.06 w=0.65 l=0.15
X4 VGND a_77_199# X VNB sky130_fd_pr__nfet_01v8 ad=0.08775 pd=0.92 as=0.169 ps=1.82 w=0.65 l=0.15
X5 VPWR B1 a_539_297# VPB sky130_fd_pr__pfet_01v8_hvt ad=0.29 pd=2.58 as=0.205 ps=1.41 w=1 l=0.15
X6 a_227_47# A3 VGND VNB sky130_fd_pr__nfet_01v8 ad=0.12675 pd=1.04 as=0.12675 ps=1.04 w=0.65 l=0.15
X7 VPWR a_77_199# X VPB sky130_fd_pr__pfet_01v8_hvt ad=0.135 pd=1.27 as=0.335 ps=2.67 w=1 l=0.15
X8 a_77_199# A3 a_323_297# VPB sky130_fd_pr__pfet_01v8_hvt ad=0.195 pd=1.39 as=0.195 ps=1.39 w=1 l=0.15
X9 VGND A2 a_227_47# VNB sky130_fd_pr__nfet_01v8 ad=0.12675 pd=1.04 as=0.10725 ps=0.98 w=0.65 l=0.15
X10 a_227_47# A1 VGND VNB sky130_fd_pr__nfet_01v8 ad=0.10725 pd=0.98 as=0.08775 ps=0.92 w=0.65 l=0.15
X11 a_539_297# B2 a_77_199# VPB sky130_fd_pr__pfet_01v8_hvt ad=0.205 pd=1.41 as=0.195 ps=1.39 w=1 l=0.15
.ends

.subckt sky130_fd_sc_hd__clkbuf_4 A VGND VNB VPB VPWR X
X0 VPWR A a_27_47# VPB sky130_fd_pr__pfet_01v8_hvt ad=0.165 pd=1.33 as=0.265 ps=2.53 w=1 l=0.15
X1 VGND a_27_47# X VNB sky130_fd_pr__nfet_01v8 ad=0.1218 pd=1.42 as=0.0588 ps=0.7 w=0.42 l=0.15
X2 VGND a_27_47# X VNB sky130_fd_pr__nfet_01v8 ad=0.0588 pd=0.7 as=0.0588 ps=0.7 w=0.42 l=0.15
X3 X a_27_47# VPWR VPB sky130_fd_pr__pfet_01v8_hvt ad=0.14 pd=1.28 as=0.14 ps=1.28 w=1 l=0.15
X4 X a_27_47# VGND VNB sky130_fd_pr__nfet_01v8 ad=0.0588 pd=0.7 as=0.0588 ps=0.7 w=0.42 l=0.15
X5 VGND A a_27_47# VNB sky130_fd_pr__nfet_01v8 ad=0.07035 pd=0.755 as=0.1113 ps=1.37 w=0.42 l=0.15
X6 VPWR a_27_47# X VPB sky130_fd_pr__pfet_01v8_hvt ad=0.3 pd=2.6 as=0.14 ps=1.28 w=1 l=0.15
X7 X a_27_47# VGND VNB sky130_fd_pr__nfet_01v8 ad=0.0588 pd=0.7 as=0.07035 ps=0.755 w=0.42 l=0.15
X8 X a_27_47# VPWR VPB sky130_fd_pr__pfet_01v8_hvt ad=0.14 pd=1.28 as=0.165 ps=1.33 w=1 l=0.15
X9 VPWR a_27_47# X VPB sky130_fd_pr__pfet_01v8_hvt ad=0.14 pd=1.28 as=0.14 ps=1.28 w=1 l=0.15
.ends

.subckt sky130_fd_sc_hd__buf_2 A VGND VNB VPB VPWR X
X0 VPWR a_27_47# X VPB sky130_fd_pr__pfet_01v8_hvt ad=0.265 pd=2.53 as=0.135 ps=1.27 w=1 l=0.15
X1 X a_27_47# VPWR VPB sky130_fd_pr__pfet_01v8_hvt ad=0.135 pd=1.27 as=0.149 ps=1.325 w=1 l=0.15
X2 VPWR A a_27_47# VPB sky130_fd_pr__pfet_01v8_hvt ad=0.149 pd=1.325 as=0.1664 ps=1.8 w=0.64 l=0.15
X3 X a_27_47# VGND VNB sky130_fd_pr__nfet_01v8 ad=0.08775 pd=0.92 as=0.097 ps=0.975 w=0.65 l=0.15
X4 VGND a_27_47# X VNB sky130_fd_pr__nfet_01v8 ad=0.17225 pd=1.83 as=0.08775 ps=0.92 w=0.65 l=0.15
X5 VGND A a_27_47# VNB sky130_fd_pr__nfet_01v8 ad=0.097 pd=0.975 as=0.1092 ps=1.36 w=0.42 l=0.15
.ends

.subckt sky130_fd_sc_hd__decap_6 VGND VNB VPB VPWR
X0 VPWR VGND VPWR VPB sky130_fd_pr__pfet_01v8_hvt ad=0.2262 pd=2.26 as=0.4524 ps=4.52 w=0.87 l=1.97
X1 VGND VPWR VGND VNB sky130_fd_pr__nfet_01v8 ad=0.143 pd=1.62 as=0.286 ps=3.24 w=0.55 l=1.97
.ends

.subckt sky130_fd_sc_hd__dfrtp_4 CLK D RESET_B VGND VNB VPB VPWR Q
X0 a_805_47# a_761_289# a_639_47# VNB sky130_fd_pr__nfet_01v8 ad=0.0441 pd=0.63 as=0.1401 ps=1.1 w=0.42 l=0.15
X1 a_1217_47# a_27_47# a_1108_47# VNB sky130_fd_pr__special_nfet_01v8 ad=0.0669 pd=0.75 as=0.0711 ps=0.755 w=0.36 l=0.15
X2 a_1283_21# a_1108_47# a_1462_47# VNB sky130_fd_pr__nfet_01v8 ad=0.1092 pd=1.36 as=0.06405 ps=0.725 w=0.42 l=0.15
X3 a_651_413# a_27_47# a_543_47# VPB sky130_fd_pr__pfet_01v8_hvt ad=0.1155 pd=0.97 as=0.07245 ps=0.765 w=0.42 l=0.15
X4 a_1108_47# a_193_47# a_761_289# VNB sky130_fd_pr__special_nfet_01v8 ad=0.0711 pd=0.755 as=0.0999 ps=0.985 w=0.36 l=0.15
X5 VGND RESET_B a_805_47# VNB sky130_fd_pr__nfet_01v8 ad=0.1346 pd=1.15 as=0.0441 ps=0.63 w=0.42 l=0.15
X6 VPWR a_1283_21# Q VPB sky130_fd_pr__pfet_01v8_hvt ad=0.305 pd=2.61 as=0.135 ps=1.27 w=1 l=0.15
X7 VPWR CLK a_27_47# VPB sky130_fd_pr__pfet_01v8_hvt ad=0.0864 pd=0.91 as=0.1664 ps=1.8 w=0.64 l=0.15
X8 a_448_47# D VPWR VPB sky130_fd_pr__pfet_01v8_hvt ad=0.0651 pd=0.73 as=0.1092 ps=1.36 w=0.42 l=0.15
X9 Q a_1283_21# VPWR VPB sky130_fd_pr__pfet_01v8_hvt ad=0.135 pd=1.27 as=0.135 ps=1.27 w=1 l=0.15
X10 VPWR a_1283_21# Q VPB sky130_fd_pr__pfet_01v8_hvt ad=0.135 pd=1.27 as=0.135 ps=1.27 w=1 l=0.15
X11 a_761_289# a_543_47# VGND VNB sky130_fd_pr__nfet_01v8 ad=0.0999 pd=0.985 as=0.1346 ps=1.15 w=0.64 l=0.15
X12 Q a_1283_21# VGND VNB sky130_fd_pr__nfet_01v8 ad=0.08775 pd=0.92 as=0.169 ps=1.82 w=0.65 l=0.15
X13 a_193_47# a_27_47# VGND VNB sky130_fd_pr__nfet_01v8 ad=0.1092 pd=1.36 as=0.0567 ps=0.69 w=0.42 l=0.15
X14 a_1108_47# a_27_47# a_761_289# VPB sky130_fd_pr__pfet_01v8_hvt ad=0.0588 pd=0.7 as=0.12915 ps=1.185 w=0.42 l=0.15
X15 a_1462_47# RESET_B VGND VNB sky130_fd_pr__nfet_01v8 ad=0.06405 pd=0.725 as=0.12495 ps=1.015 w=0.42 l=0.15
X16 a_543_47# a_27_47# a_448_47# VNB sky130_fd_pr__special_nfet_01v8 ad=0.0594 pd=0.69 as=0.066 ps=0.745 w=0.36 l=0.15
X17 a_543_47# a_193_47# a_448_47# VPB sky130_fd_pr__pfet_01v8_hvt ad=0.07245 pd=0.765 as=0.0651 ps=0.73 w=0.42 l=0.15
X18 a_448_47# D VGND VNB sky130_fd_pr__nfet_01v8 ad=0.066 pd=0.745 as=0.2205 ps=1.89 w=0.42 l=0.15
X19 VPWR a_1283_21# a_1270_413# VPB sky130_fd_pr__pfet_01v8_hvt ad=0.0819 pd=0.81 as=0.0567 ps=0.69 w=0.42 l=0.15
X20 VPWR a_1108_47# a_1283_21# VPB sky130_fd_pr__pfet_01v8_hvt ad=0.1134 pd=1.38 as=0.0567 ps=0.69 w=0.42 l=0.15
X21 Q a_1283_21# VPWR VPB sky130_fd_pr__pfet_01v8_hvt ad=0.135 pd=1.27 as=0.26 ps=2.52 w=1 l=0.15
X22 a_1270_413# a_193_47# a_1108_47# VPB sky130_fd_pr__pfet_01v8_hvt ad=0.0567 pd=0.69 as=0.0588 ps=0.7 w=0.42 l=0.15
X23 a_193_47# a_27_47# VPWR VPB sky130_fd_pr__pfet_01v8_hvt ad=0.1664 pd=1.8 as=0.0864 ps=0.91 w=0.64 l=0.15
X24 a_1283_21# RESET_B VPWR VPB sky130_fd_pr__pfet_01v8_hvt ad=0.0567 pd=0.69 as=0.0819 ps=0.81 w=0.42 l=0.15
X25 VGND a_1283_21# Q VNB sky130_fd_pr__nfet_01v8 ad=0.08775 pd=0.92 as=0.08775 ps=0.92 w=0.65 l=0.15
X26 VGND a_1283_21# Q VNB sky130_fd_pr__nfet_01v8 ad=0.182 pd=1.86 as=0.08775 ps=0.92 w=0.65 l=0.15
X27 VPWR a_761_289# a_651_413# VPB sky130_fd_pr__pfet_01v8_hvt ad=0.07035 pd=0.755 as=0.1155 ps=0.97 w=0.42 l=0.15
X28 a_639_47# a_193_47# a_543_47# VNB sky130_fd_pr__special_nfet_01v8 ad=0.1401 pd=1.1 as=0.0594 ps=0.69 w=0.36 l=0.15
X29 VGND a_1283_21# a_1217_47# VNB sky130_fd_pr__nfet_01v8 ad=0.12495 pd=1.015 as=0.0669 ps=0.75 w=0.42 l=0.15
X30 a_651_413# RESET_B VPWR VPB sky130_fd_pr__pfet_01v8_hvt ad=0.1092 pd=1.36 as=0.07035 ps=0.755 w=0.42 l=0.15
X31 VGND CLK a_27_47# VNB sky130_fd_pr__nfet_01v8 ad=0.0567 pd=0.69 as=0.1092 ps=1.36 w=0.42 l=0.15
X32 a_761_289# a_543_47# VPWR VPB sky130_fd_pr__pfet_01v8_hvt ad=0.12915 pd=1.185 as=0.2184 ps=2.2 w=0.84 l=0.15
X33 Q a_1283_21# VGND VNB sky130_fd_pr__nfet_01v8 ad=0.08775 pd=0.92 as=0.08775 ps=0.92 w=0.65 l=0.15
.ends

.subckt sky130_fd_sc_hd__a21bo_1 A1 A2 B1_N VGND VNB VPB VPWR X
X0 a_298_297# a_27_413# a_215_297# VPB sky130_fd_pr__pfet_01v8_hvt ad=0.135 pd=1.27 as=0.265 ps=2.53 w=1 l=0.15
X1 a_215_297# a_27_413# VGND VNB sky130_fd_pr__nfet_01v8 ad=0.08775 pd=0.92 as=0.1359 ps=1.1 w=0.65 l=0.15
X2 a_298_297# A2 VPWR VPB sky130_fd_pr__pfet_01v8_hvt ad=0.265 pd=2.53 as=0.14 ps=1.28 w=1 l=0.15
X3 X a_215_297# VGND VNB sky130_fd_pr__nfet_01v8 ad=0.169 pd=1.82 as=0.258375 ps=1.445 w=0.65 l=0.15
X4 VPWR B1_N a_27_413# VPB sky130_fd_pr__pfet_01v8_hvt ad=0.1092 pd=1.36 as=0.1092 ps=1.36 w=0.42 l=0.15
X5 X a_215_297# VPWR VPB sky130_fd_pr__pfet_01v8_hvt ad=0.26 pd=2.52 as=0.26 ps=2.52 w=1 l=0.15
X6 a_382_47# A1 a_215_297# VNB sky130_fd_pr__nfet_01v8 ad=0.091 pd=0.93 as=0.08775 ps=0.92 w=0.65 l=0.15
X7 VGND B1_N a_27_413# VNB sky130_fd_pr__nfet_01v8 ad=0.1359 pd=1.1 as=0.1113 ps=1.37 w=0.42 l=0.15
X8 VPWR A1 a_298_297# VPB sky130_fd_pr__pfet_01v8_hvt ad=0.14 pd=1.28 as=0.135 ps=1.27 w=1 l=0.15
X9 VGND A2 a_382_47# VNB sky130_fd_pr__nfet_01v8 ad=0.258375 pd=1.445 as=0.091 ps=0.93 w=0.65 l=0.15
.ends

.subckt sky130_fd_sc_hd__buf_1 A VGND VNB VPB VPWR X
X0 VPWR A a_27_47# VPB sky130_fd_pr__pfet_01v8_hvt ad=0.11455 pd=1.08 as=0.2054 ps=2.1 w=0.79 l=0.15
X1 X a_27_47# VGND VNB sky130_fd_pr__nfet_01v8 ad=0.1352 pd=1.56 as=0.0754 ps=0.81 w=0.52 l=0.15
X2 X a_27_47# VPWR VPB sky130_fd_pr__pfet_01v8_hvt ad=0.2054 pd=2.1 as=0.11455 ps=1.08 w=0.79 l=0.15
X3 VGND A a_27_47# VNB sky130_fd_pr__nfet_01v8 ad=0.0754 pd=0.81 as=0.1352 ps=1.56 w=0.52 l=0.15
.ends

.subckt sky130_fd_sc_hd__nand3b_2 A_N B C VGND VNB VPB VPWR Y
X0 a_408_47# B a_218_47# VNB sky130_fd_pr__nfet_01v8 ad=0.08775 pd=0.92 as=0.08775 ps=0.92 w=0.65 l=0.15
X1 a_408_47# a_27_47# Y VNB sky130_fd_pr__nfet_01v8 ad=0.169 pd=1.82 as=0.08775 ps=0.92 w=0.65 l=0.15
X2 Y a_27_47# a_408_47# VNB sky130_fd_pr__nfet_01v8 ad=0.08775 pd=0.92 as=0.08775 ps=0.92 w=0.65 l=0.15
X3 VPWR A_N a_27_47# VPB sky130_fd_pr__pfet_01v8_hvt ad=0.17575 pd=1.395 as=0.1092 ps=1.36 w=0.42 l=0.15
X4 VGND C a_218_47# VNB sky130_fd_pr__nfet_01v8 ad=0.169 pd=1.82 as=0.08775 ps=0.92 w=0.65 l=0.15
X5 VPWR B Y VPB sky130_fd_pr__pfet_01v8_hvt ad=0.26 pd=2.52 as=0.135 ps=1.27 w=1 l=0.15
X6 a_218_47# C VGND VNB sky130_fd_pr__nfet_01v8 ad=0.08775 pd=0.92 as=0.11975 ps=1.045 w=0.65 l=0.15
X7 Y B VPWR VPB sky130_fd_pr__pfet_01v8_hvt ad=0.135 pd=1.27 as=0.135 ps=1.27 w=1 l=0.15
X8 VPWR C Y VPB sky130_fd_pr__pfet_01v8_hvt ad=0.135 pd=1.27 as=0.135 ps=1.27 w=1 l=0.15
X9 VPWR a_27_47# Y VPB sky130_fd_pr__pfet_01v8_hvt ad=0.26 pd=2.52 as=0.135 ps=1.27 w=1 l=0.15
X10 a_218_47# B a_408_47# VNB sky130_fd_pr__nfet_01v8 ad=0.08775 pd=0.92 as=0.169 ps=1.82 w=0.65 l=0.15
X11 Y C VPWR VPB sky130_fd_pr__pfet_01v8_hvt ad=0.135 pd=1.27 as=0.17575 ps=1.395 w=1 l=0.15
X12 Y a_27_47# VPWR VPB sky130_fd_pr__pfet_01v8_hvt ad=0.135 pd=1.27 as=0.26 ps=2.52 w=1 l=0.15
X13 VGND A_N a_27_47# VNB sky130_fd_pr__nfet_01v8 ad=0.11975 pd=1.045 as=0.1092 ps=1.36 w=0.42 l=0.15
.ends

.subckt sky130_fd_sc_hd__and2b_1 A_N B VGND VNB VPB VPWR X
X0 VPWR B a_207_413# VPB sky130_fd_pr__pfet_01v8_hvt ad=0.2279 pd=1.74 as=0.0609 ps=0.71 w=0.42 l=0.15
X1 X a_207_413# VPWR VPB sky130_fd_pr__pfet_01v8_hvt ad=0.26 pd=2.52 as=0.2279 ps=1.74 w=1 l=0.15
X2 a_297_47# a_27_413# a_207_413# VNB sky130_fd_pr__nfet_01v8 ad=0.0504 pd=0.66 as=0.1092 ps=1.36 w=0.42 l=0.15
X3 X a_207_413# VGND VNB sky130_fd_pr__nfet_01v8 ad=0.169 pd=1.82 as=0.1013 ps=0.99 w=0.65 l=0.15
X4 a_207_413# a_27_413# VPWR VPB sky130_fd_pr__pfet_01v8_hvt ad=0.0609 pd=0.71 as=0.0714 ps=0.76 w=0.42 l=0.15
X5 VPWR A_N a_27_413# VPB sky130_fd_pr__pfet_01v8_hvt ad=0.0714 pd=0.76 as=0.1092 ps=1.36 w=0.42 l=0.15
X6 VGND B a_297_47# VNB sky130_fd_pr__nfet_01v8 ad=0.1013 pd=0.99 as=0.0504 ps=0.66 w=0.42 l=0.15
X7 a_27_413# A_N VGND VNB sky130_fd_pr__nfet_01v8 ad=0.1092 pd=1.36 as=0.1092 ps=1.36 w=0.42 l=0.15
.ends
