* NGSPICE file created from SAR_ADC_12bit_flat.ext - technology: sky130A

.subckt SAR_ADC_12bit VDD VCM VSS VREF VIN_P VIN_N RST_Z CLK_DATA DATA[5] DATA[4] DATA[3] DATA[2] DATA[1] DATA[0] START
+ EN_OFFSET_CAL DEBUG_MUX[3] DEBUG_MUX[2] DEBUG_MUX[1] DEBUG_MUX[0] DEBUG_OUT CLK
X0 a_n2840_46500# a_n2661_46508.t4 VSS.t2560 VSS.t2559 sky130_fd_pr__nfet_01v8 ad=0.1092 pd=1.36 as=0.097 ps=0.975 w=0.42 l=0.15
X1 VDAC_N.t1081 C6_N_btm.t21 sky130_fd_pr__cap_mim_m3_1 l=1 w=1
X2 a_8912_37509.t27 VDAC_P.t1081 a_5088_37509.t9 VDD.t2245 sky130_fd_pr__pfet_01v8 ad=0.87 pd=6.29 as=0.87 ps=6.29 w=6 l=0.2
X3 VSS.t2562 a_18445_42718# a_19187_42718# VSS.t2561 sky130_fd_pr__nfet_01v8 ad=0.097 pd=0.975 as=0.1092 ps=1.36 w=0.42 l=0.15
X4 VDAC_P.t2133 C10_P_btm.t44 sky130_fd_pr__cap_mim_m3_1 l=1 w=1
X5 a_n1522_42718.t1 a_n1552_42692# VSS.t2570 VSS.t2569 sky130_fd_pr__nfet_01v8 ad=0.08775 pd=0.92 as=0.17225 ps=1.83 w=0.65 l=0.15
X6 VDAC_N.t2133 C10_N_btm.t41 sky130_fd_pr__cap_mim_m3_1 l=1 w=1
X7 VDAC_N.t291 C10_N_btm.t117 sky130_fd_pr__cap_mim_m3_1 l=1 w=1
X8 a_10414_43780# a_10844_44364# VSS.t2574 VSS.t2573 sky130_fd_pr__nfet_01v8 ad=0.1092 pd=1.36 as=0.11975 ps=1.045 w=0.42 l=0.15
X9 C10_P_btm.t1072 a_n2810_44894.t4 VSS.t3272 VSS.t3271 sky130_fd_pr__nfet_01v8 ad=1.32 pd=8.33 as=1.32 ps=8.33 w=8 l=0.15
X10 VDD.t31 a_9521_45982.t13 a_9803_45982# VDD.t30 sky130_fd_pr__pfet_01v8_hvt ad=0.0864 pd=0.91 as=0.1664 ps=1.8 w=0.64 l=0.15
X11 VSS.t2582 a_11415_45670# a_9349_46539# VSS.t2581 sky130_fd_pr__nfet_01v8 ad=0.10025 pd=0.985 as=0.17875 ps=1.85 w=0.65 l=0.15
X12 VDAC_N.t2131 C10_N_btm.t83 sky130_fd_pr__cap_mim_m3_1 l=1 w=1
X13 VDAC_P.t291 C8_P_btm.t45 sky130_fd_pr__cap_mim_m3_1 l=1 w=1
X14 a_5088_37509.t12 VDAC_P.t2131 a_8912_37509.t30 VDD.t2254 sky130_fd_pr__pfet_01v8 ad=0.87 pd=6.29 as=0.87 ps=6.29 w=6 l=0.2
X15 VDAC_N.t1079 C9_N_btm.t41 sky130_fd_pr__cap_mim_m3_1 l=1 w=1
X16 VDAC_P.t1079 C10_P_btm.t48 sky130_fd_pr__cap_mim_m3_1 l=1 w=1
X17 VDAC_P.t2129 C9_P_btm.t70 sky130_fd_pr__cap_mim_m3_1 l=1 w=1
X18 VDAC_P.t553 C9_P_btm.t529 sky130_fd_pr__cap_mim_m3_1 l=1 w=1
X19 a_2512_45982# a_1597_45982# a_2165_46224# VSS.t2587 sky130_fd_pr__special_nfet_01v8 ad=0.0711 pd=0.755 as=0.0999 ps=0.985 w=0.36 l=0.15
X20 VDAC_P.t2127 C9_P_btm.t324 sky130_fd_pr__cap_mim_m3_1 l=1 w=1
X21 VDAC_N.t2129 C10_N_btm.t116 sky130_fd_pr__cap_mim_m3_1 l=1 w=1
X22 VSS.t2381 VSS.t2382 sky130_fd_pr__cap_mim_m3_1 l=1 w=1
X23 VDAC_P.t1077 C9_P_btm.t288 sky130_fd_pr__cap_mim_m3_1 l=1 w=1
X24 VDAC_P.t2125 C9_P_btm.t260 sky130_fd_pr__cap_mim_m3_1 l=1 w=1
X25 VDAC_P.t159 C10_P_btm.t64 sky130_fd_pr__cap_mim_m3_1 l=1 w=1
X26 VDAC_P.t2123 C8_P_btm.t93 sky130_fd_pr__cap_mim_m3_1 l=1 w=1
X27 VDAC_N.t553 C9_N_btm.t64 sky130_fd_pr__cap_mim_m3_1 l=1 w=1
X28 VDAC_P.t1075 C10_P_btm.t95 sky130_fd_pr__cap_mim_m3_1 l=1 w=1
X29 VDD.t2687 a_22521_39947# a_22469_39973# VDD.t2686 sky130_fd_pr__pfet_01v8_hvt ad=0.26 pd=2.52 as=0.26 ps=2.52 w=1 l=0.15
X30 VDAC_N.t2127 C9_N_btm.t146 sky130_fd_pr__cap_mim_m3_1 l=1 w=1
X31 VDD.t2304 VSS.t3683 VDD.t2303 VDD.t2302 sky130_fd_pr__pfet_01v8_hvt ad=0.2262 pd=2.26 as=0 ps=0 w=0.87 l=1.05
X32 VSS.t2594 a_5663_45982# a_8055_45491# VSS.t2593 sky130_fd_pr__nfet_01v8 ad=0.10025 pd=0.985 as=0.1092 ps=1.36 w=0.42 l=0.15
X33 VDAC_N.t1077 C10_N_btm.t515 sky130_fd_pr__cap_mim_m3_1 l=1 w=1
X34 w_1375_34946.t3 a_n1123_35174.t4 w_1375_34946.t3 w_1375_34946.t2 sky130_fd_pr__pfet_01v8 ad=0.54375 pd=4.04 as=0 ps=0 w=3.75 l=15
X35 C10_N_btm.t33 a_22812_30659.t19 VREF.t42 VDD.t531 sky130_fd_pr__pfet_01v8_lvt ad=1.16 pd=8.29 as=1.16 ps=8.29 w=8 l=0.35
X36 VSS.t2602 a_19633_43262# a_21303_42718# VSS.t2601 sky130_fd_pr__nfet_01v8 ad=0.097 pd=0.975 as=0.1092 ps=1.36 w=0.42 l=0.15
X37 a_9547_46565# a_n53_44363.t13 a_9547_46892# VSS.t620 sky130_fd_pr__nfet_01v8 ad=0.09975 pd=0.895 as=0.0693 ps=0.75 w=0.42 l=0.15
X38 a_14194_46348# a_13524_46832.t4 VDD.t536 VDD.t535 sky130_fd_pr__pfet_01v8_hvt ad=0.1092 pd=1.36 as=0.1092 ps=1.36 w=0.42 l=0.15
X39 VDAC_P.t2121 C9_P_btm.t245 sky130_fd_pr__cap_mim_m3_1 l=1 w=1
X40 a_18918_45758# a_7208_47044# a_19168_45758# VSS.t2615 sky130_fd_pr__nfet_01v8 ad=0.169 pd=1.82 as=0.08775 ps=0.92 w=0.65 l=0.15
X41 a_9863_43958# a_1053_45123.t2 a_10037_43834# VSS.t579 sky130_fd_pr__nfet_01v8 ad=0.1176 pd=1.4 as=0.0567 ps=0.69 w=0.42 l=0.15
X42 VSS.t586 a_9096_45276.t2 a_8848_44868# VSS.t585 sky130_fd_pr__nfet_01v8 ad=0.0567 pd=0.69 as=0.0567 ps=0.69 w=0.42 l=0.15
X43 VDD.t2454 VSS.t3594 VDD.t2453 VDD.t2333 sky130_fd_pr__pfet_01v8_hvt ad=0.2262 pd=2.26 as=0 ps=0 w=0.87 l=1.05
X44 SMPL_ON_P.t6 a_n2038_35608# VDD.t2719 VDD.t2718 sky130_fd_pr__pfet_01v8_hvt ad=0.135 pd=1.27 as=0.135 ps=1.27 w=1 l=0.15
X45 VSS.t573 a_15730_45670.t17 a_16140_44894# VSS.t572 sky130_fd_pr__nfet_01v8 ad=0.10025 pd=0.985 as=0.08775 ps=0.92 w=0.65 l=0.15
X46 VDD.t539 a_n1459_43236.t9 a_22959_44894# VDD.t538 sky130_fd_pr__pfet_01v8_hvt ad=0.149 pd=1.325 as=0.1664 ps=1.8 w=0.64 l=0.15
X47 a_5088_37509.t3 VSS.t3798 VDAC_Ni.t4 VDD.t2286 sky130_fd_pr__pfet_01v8_hvt ad=0.62 pd=4.62 as=0.33 ps=2.33 w=2 l=0.15
X48 a_2113_38308# VDAC_Ni.t9 a_2112_39137# VSS.t18 sky130_fd_pr__nfet_01v8_lvt ad=0.31 pd=2.62 as=0.31 ps=2.62 w=1 l=0.15
X49 a_12845_42968# a_10259_42870.t17 VDD.t9 VDD.t8 sky130_fd_pr__pfet_01v8_hvt ad=0.105 pd=1.21 as=0.26 ps=2.52 w=1 l=0.15
X50 VDAC_N.t2125 C8_N_btm.t41 sky130_fd_pr__cap_mim_m3_1 l=1 w=1
X51 VDAC_N.t159 C8_N_btm.t94 sky130_fd_pr__cap_mim_m3_1 l=1 w=1
X52 VDD.t597 a_13273_44868.t23 a_12931_44894# VDD.t596 sky130_fd_pr__pfet_01v8_hvt ad=0.31245 pd=1.68 as=0.0588 ps=0.7 w=0.42 l=0.15
X53 VDAC_N.t2123 C7_N_btm.t33 sky130_fd_pr__cap_mim_m3_1 l=1 w=1
X54 VDAC_P.t551 C7_P_btm.t65 sky130_fd_pr__cap_mim_m3_1 l=1 w=1
X55 a_20892_30659.t1 a_22959_46534# VSS.t2636 VSS.t1203 sky130_fd_pr__nfet_01v8 ad=0.08775 pd=0.92 as=0.097 ps=0.975 w=0.65 l=0.15
X56 a_n1551_45412.t4 a_10259_42870.t25 VDD.t16 VDD.t15 sky130_fd_pr__pfet_01v8_hvt ad=0.135 pd=1.27 as=0.135 ps=1.27 w=1 l=0.15
X57 VDAC_N.t1075 C9_N_btm.t167 sky130_fd_pr__cap_mim_m3_1 l=1 w=1
X58 VDAC_P.t2119 C8_P_btm.t271 sky130_fd_pr__cap_mim_m3_1 l=1 w=1
X59 VDD.t606 a_n1735_43236.t8 a_n1741_42692# VDD.t605 sky130_fd_pr__pfet_01v8_hvt ad=0.26 pd=2.52 as=0.135 ps=1.27 w=1 l=0.15
X60 VDAC_P.t1073 C8_P_btm.t46 sky130_fd_pr__cap_mim_m3_1 l=1 w=1
X61 VDAC_P.t2117 C10_P_btm.t242 sky130_fd_pr__cap_mim_m3_1 l=1 w=1
X62 VDAC_P.t289 C10_P_btm.t490 sky130_fd_pr__cap_mim_m3_1 l=1 w=1
X63 VDAC_N.t2121 C10_N_btm.t198 sky130_fd_pr__cap_mim_m3_1 l=1 w=1
X64 VCM.t41 a_3222_30651.t15 VDAC_P.t4 VSS.t666 sky130_fd_pr__nfet_01v8_lvt ad=1.32 pd=8.33 as=1.32 ps=8.33 w=8 l=0.15
X65 VDAC_P.t1071 C9_P_btm.t117 sky130_fd_pr__cap_mim_m3_1 l=1 w=1
X66 VDAC_N.t551 C2_N_btm.t5 sky130_fd_pr__cap_mim_m3_1 l=1 w=1
X67 a_9266_44350# a_9179_44592# a_8862_44482# VDD.t2736 sky130_fd_pr__pfet_01v8_hvt ad=0.12915 pd=1.185 as=0.0588 ps=0.7 w=0.42 l=0.15
X68 VDD.t67 COMP_P.t9 a_n1237_42718# VDD.t66 sky130_fd_pr__pfet_01v8_hvt ad=0.11455 pd=1.08 as=0.2054 ps=2.1 w=0.79 l=0.15
X69 VSS.t2480 VSS.t2481 sky130_fd_pr__cap_mim_m3_1 l=1 w=1
X70 a_n2467_30659.t0 a_n2472_47044# VSS.t2648 VSS.t1669 sky130_fd_pr__nfet_01v8 ad=0.08775 pd=0.92 as=0.17225 ps=1.83 w=0.65 l=0.15
X71 VDAC_P.t2113 C10_P_btm.t1031 sky130_fd_pr__cap_mim_m3_1 l=1 w=1
X72 VDAC_N.t2119 C9_N_btm.t263 sky130_fd_pr__cap_mim_m3_1 l=1 w=1
X73 a_10227_47214.t5 a_11795_47044# VDD.t2753 VDD.t2752 sky130_fd_pr__pfet_01v8_hvt ad=0.14 pd=1.28 as=0.14 ps=1.28 w=1 l=0.15
X74 VDAC_N.t1073 C8_N_btm.t103 sky130_fd_pr__cap_mim_m3_1 l=1 w=1
X75 VDAC_N.t2117 C10_N_btm.t361 sky130_fd_pr__cap_mim_m3_1 l=1 w=1
X76 C8_P_btm.t0 a_n2810_47070.t4 VREF.t0 VDD.t86 sky130_fd_pr__pfet_01v8_lvt ad=1.16 pd=8.29 as=1.16 ps=8.29 w=8 l=0.35
X77 SMPL_ON_N.t5 a_21789_35634# VDD.t2757 VDD.t2756 sky130_fd_pr__pfet_01v8_hvt ad=0.135 pd=1.27 as=0.26 ps=2.52 w=1 l=0.15
X78 a_1343_38525.t7 a_1177_38525# VDD.t2771 VDD.t2770 sky130_fd_pr__pfet_01v8_hvt ad=0.135 pd=1.27 as=0.135 ps=1.27 w=1 l=0.15
X79 a_19058_43806# a_8727_47222.t4 VSS.t78 VSS.t77 sky130_fd_pr__nfet_01v8 ad=0.06405 pd=0.725 as=0.12495 ps=1.015 w=0.42 l=0.15
X80 VDAC_N.t289 C9_N_btm.t267 sky130_fd_pr__cap_mim_m3_1 l=1 w=1
X81 VDAC_N.t2115 C10_N_btm.t573 sky130_fd_pr__cap_mim_m3_1 l=1 w=1
X82 VDAC_P.t549 C10_P_btm.t139 sky130_fd_pr__cap_mim_m3_1 l=1 w=1
X83 VDAC_P.t2111 C10_P_btm.t147 sky130_fd_pr__cap_mim_m3_1 l=1 w=1
X84 VDAC_P.t1069 C9_P_btm.t102 sky130_fd_pr__cap_mim_m3_1 l=1 w=1
X85 VDAC_P.t2109 C10_P_btm.t266 sky130_fd_pr__cap_mim_m3_1 l=1 w=1
X86 a_n1920_47588# a_n1741_47596.t5 VDD.t271 VDD.t270 sky130_fd_pr__pfet_01v8_hvt ad=0.1664 pd=1.8 as=0.149 ps=1.325 w=0.64 l=0.15
X87 VDAC_P.t93 C10_P_btm.t344 sky130_fd_pr__cap_mim_m3_1 l=1 w=1
X88 VDAC_N.t1071 C8_N_btm.t246 sky130_fd_pr__cap_mim_m3_1 l=1 w=1
X89 VDAC_P.t2107 C9_P_btm.t53 sky130_fd_pr__cap_mim_m3_1 l=1 w=1
X90 VSS.t2679 a_2151_45670# a_1735_46195# VSS.t2678 sky130_fd_pr__nfet_01v8 ad=0.12675 pd=1.04 as=0.234 ps=2.02 w=0.65 l=0.15
X91 VDAC_N.t2113 C10_N_btm.t634 sky130_fd_pr__cap_mim_m3_1 l=1 w=1
X92 a_18958_44350# a_17881_44356# a_18796_44728# VDD.t2781 sky130_fd_pr__pfet_01v8_hvt ad=0.0567 pd=0.69 as=0.0588 ps=0.7 w=0.42 l=0.15
X93 VSS.t3593 C10_N_btm.t1079 sky130_fd_pr__cap_mim_m3_1 l=1 w=1
X94 VDD.t2560 VSS.t3790 VDD.t2559 VDD.t2283 sky130_fd_pr__pfet_01v8_hvt ad=0.2262 pd=2.26 as=0 ps=0 w=0.87 l=4.73
X95 VDAC_P.t1067 C10_P_btm.t420 sky130_fd_pr__cap_mim_m3_1 l=1 w=1
X96 VSS.t2690 a_22775_42718# a_22465_38541# VSS.t2689 sky130_fd_pr__nfet_01v8 ad=0.1218 pd=1.42 as=0.0588 ps=0.7 w=0.42 l=0.15
X97 VDAC_N.t549 C10_N_btm.t738 sky130_fd_pr__cap_mim_m3_1 l=1 w=1
X98 VDAC_P.t2105 C9_P_btm.t46 sky130_fd_pr__cap_mim_m3_1 l=1 w=1
X99 VSS.t324 a_n1827_44868.t8 a_22223_47070# VSS.t301 sky130_fd_pr__nfet_01v8 ad=0.097 pd=0.975 as=0.1092 ps=1.36 w=0.42 l=0.15
X100 VDAC_P.t547 C9_P_btm.t38 sky130_fd_pr__cap_mim_m3_1 l=1 w=1
X101 a_5142_30651.t3 a_15008_42692# VDD.t2802 VDD.t2801 sky130_fd_pr__pfet_01v8_hvt ad=0.135 pd=1.27 as=0.265 ps=2.53 w=1 l=0.15
X102 VDD.t2804 a_15831_42883# a_13144_47452.t1 VDD.t2803 sky130_fd_pr__pfet_01v8_hvt ad=0.11455 pd=1.08 as=0.2054 ps=2.1 w=0.79 l=0.15
X103 VSS.t3410 VDD.t3194 VSS.t3409 VSS.t3408 sky130_fd_pr__nfet_01v8 ad=0.143 pd=1.62 as=0 ps=0 w=0.55 l=0.59
X104 VDAC_N.t2111 C9_N_btm.t298 sky130_fd_pr__cap_mim_m3_1 l=1 w=1
X105 VDAC_N.t1069 C9_N_btm.t344 sky130_fd_pr__cap_mim_m3_1 l=1 w=1
X106 VDAC_N.t2109 C6_N_btm.t22 sky130_fd_pr__cap_mim_m3_1 l=1 w=1
X107 a_15589_44670# a_12769_44594.t2 VSS.t57 VSS.t56 sky130_fd_pr__nfet_01v8 ad=0.11375 pd=1 as=0.10075 ps=0.96 w=0.65 l=0.15
X108 VDAC_P.t2103 C9_P_btm.t527 sky130_fd_pr__cap_mim_m3_1 l=1 w=1
X109 VDD.t414 a_n237_45454.t13 a_n377_45776# VDD.t413 sky130_fd_pr__pfet_01v8_hvt ad=0.16655 pd=1.39 as=0.0567 ps=0.69 w=0.42 l=0.15
X110 VSS.t3782 C6_N_btm.t66 sky130_fd_pr__cap_mim_m3_1 l=1 w=1
X111 VDD.t2097 a_8969_43582# a_9343_42718# VDD.t2096 sky130_fd_pr__pfet_01v8_hvt ad=0.149 pd=1.325 as=0.1664 ps=1.8 w=0.64 l=0.15
X112 a_22545_39429# a_22459_39581# VDD.t2132 VDD.t2131 sky130_fd_pr__pfet_01v8_hvt ad=0.26 pd=2.52 as=0.26 ps=2.52 w=1 l=0.15
X113 a_10703_46526# a_10079_46532# a_10595_46904# VDD.t2218 sky130_fd_pr__pfet_01v8_hvt ad=0.1155 pd=0.97 as=0.07245 ps=0.765 w=0.42 l=0.15
X114 VCM.t34 a_3222_30651.t19 VDAC_N.t6 VSS.t671 sky130_fd_pr__nfet_01v8_lvt ad=1.32 pd=8.33 as=1.32 ps=8.33 w=8 l=0.15
X115 VDAC_N.t2107 C7_N_btm.t119 sky130_fd_pr__cap_mim_m3_1 l=1 w=1
X116 a_927_42692.t7 a_4527_43566# VDD.t2174 VDD.t2173 sky130_fd_pr__pfet_01v8_hvt ad=0.135 pd=1.27 as=0.26 ps=2.52 w=1 l=0.15
X117 VDAC_N.t1067 C6_N_btm.t60 sky130_fd_pr__cap_mim_m3_1 l=1 w=1
X118 VDAC_P.t1065 C7_P_btm.t11 sky130_fd_pr__cap_mim_m3_1 l=1 w=1
X119 VDAC_N.t2105 C10_N_btm.t759 sky130_fd_pr__cap_mim_m3_1 l=1 w=1
X120 a_10795_43262# a_10171_43268# a_10687_43640# VDD.t2148 sky130_fd_pr__pfet_01v8_hvt ad=0.1155 pd=0.97 as=0.07245 ps=0.765 w=0.42 l=0.15
X121 a_2471_45046# a_927_42692.t23 a_2617_44894# VSS.t100 sky130_fd_pr__nfet_01v8 ad=0.169 pd=1.82 as=0.11375 ps=1 w=0.65 l=0.15
X122 a_17930_32299.t1 a_22591_44894# VSS.t2184 VSS.t2183 sky130_fd_pr__nfet_01v8 ad=0.08775 pd=0.92 as=0.097 ps=0.975 w=0.65 l=0.15
X123 VDAC_P.t2101 C10_P_btm.t464 sky130_fd_pr__cap_mim_m3_1 l=1 w=1
X124 VDD.t2763 a_21789_35634# SMPL_ON_N.t7 VDD.t2762 sky130_fd_pr__pfet_01v8_hvt ad=0.26 pd=2.52 as=0.135 ps=1.27 w=1 l=0.15
X125 VDAC_N.t547 C9_N_btm.t354 sky130_fd_pr__cap_mim_m3_1 l=1 w=1
X126 VDAC_P.t287 C9_P_btm.t31 sky130_fd_pr__cap_mim_m3_1 l=1 w=1
X127 VDD.t2769 a_1177_38525# a_1343_38525.t6 VDD.t2768 sky130_fd_pr__pfet_01v8_hvt ad=0.26 pd=2.52 as=0.135 ps=1.27 w=1 l=0.15
X128 VDAC_P.t2099 C9_P_btm.t517 sky130_fd_pr__cap_mim_m3_1 l=1 w=1
X129 VREF.t10 a_20163_31459.t4 C3_N_btm.t1 VDD.t412 sky130_fd_pr__pfet_01v8_lvt ad=1.16 pd=8.58 as=1.16 ps=8.58 w=4 l=0.35
X130 VDAC_P.t1063 C8_P_btm.t39 sky130_fd_pr__cap_mim_m3_1 l=1 w=1
X131 VDAC_P.t2097 C9_P_btm.t194 sky130_fd_pr__cap_mim_m3_1 l=1 w=1
X132 VDAC_N.t2103 C10_N_btm.t793 sky130_fd_pr__cap_mim_m3_1 l=1 w=1
X133 a_n2109_47596.t2 a_19520_46500# VDD.t2066 VDD.t2065 sky130_fd_pr__pfet_01v8_hvt ad=0.135 pd=1.27 as=0.14575 ps=1.335 w=1 l=0.15
X134 a_505_43640# a_n685_43268# a_396_43640# VSS.t2261 sky130_fd_pr__special_nfet_01v8 ad=0.0669 pd=0.75 as=0.0711 ps=0.755 w=0.36 l=0.15
X135 VSS.t3029 VDD.t3111 VSS.t3028 VSS.t3027 sky130_fd_pr__nfet_01v8 ad=0.143 pd=1.62 as=0 ps=0 w=0.55 l=1.05
X136 a_4833_47320# a_n53_44363.t21 VDD.t565 VDD.t564 sky130_fd_pr__pfet_01v8_hvt ad=0.16 pd=1.32 as=0.1725 ps=1.345 w=1 l=0.15
X137 VDAC_P.t545 C9_P_btm.t118 sky130_fd_pr__cap_mim_m3_1 l=1 w=1
X138 VSS.t2169 a_10467_47212# a_10428_47338# VSS.t2168 sky130_fd_pr__nfet_01v8 ad=0.0567 pd=0.69 as=0.1092 ps=1.36 w=0.42 l=0.15
X139 VDAC_N.t1065 C8_N_btm.t143 sky130_fd_pr__cap_mim_m3_1 l=1 w=1
X140 VSS.t2503 VSS.t2504 sky130_fd_pr__cap_mim_m3_1 l=1 w=1
X141 VDD.t2730 a_22959_46534# a_20892_30659.t3 VDD.t1857 sky130_fd_pr__pfet_01v8_hvt ad=0.265 pd=2.53 as=0.135 ps=1.27 w=1 l=0.15
X142 VDAC_P.t2095 C10_P_btm.t1010 sky130_fd_pr__cap_mim_m3_1 l=1 w=1
X143 VSS.t2470 VSS.t2471 sky130_fd_pr__cap_mim_m3_1 l=1 w=1
X144 VDAC_N.t2101 C10_N_btm.t812 sky130_fd_pr__cap_mim_m3_1 l=1 w=1
X145 VDAC_N.t287 C10_N_btm.t903 sky130_fd_pr__cap_mim_m3_1 l=1 w=1
X146 VSS.t476 a_13248_45956.t4 a_16177_45982# VSS.t475 sky130_fd_pr__nfet_01v8 ad=0.12675 pd=1.04 as=0.08775 ps=0.92 w=0.65 l=0.15
X147 VDAC_N.t2099 C9_N_btm.t361 sky130_fd_pr__cap_mim_m3_1 l=1 w=1
X148 VDAC_N.t1063 C9_N_btm.t379 sky130_fd_pr__cap_mim_m3_1 l=1 w=1
X149 VDAC_N.t2097 C10_N_btm.t920 sky130_fd_pr__cap_mim_m3_1 l=1 w=1
X150 VDAC_N.t545 C10_N_btm.t924 sky130_fd_pr__cap_mim_m3_1 l=1 w=1
X151 VDAC_P.t1061 C10_P_btm.t578 sky130_fd_pr__cap_mim_m3_1 l=1 w=1
X152 VDAC_P.t2093 C9_P_btm.t54 sky130_fd_pr__cap_mim_m3_1 l=1 w=1
X153 VDAC_P.t157 C9_P_btm.t521 sky130_fd_pr__cap_mim_m3_1 l=1 w=1
X154 a_5088_37509.t4 VDAC_P.t2091 a_8912_37509.t22 VDD.t2249 sky130_fd_pr__pfet_01v8 ad=0.87 pd=6.29 as=0.87 ps=6.29 w=6 l=0.2
X155 a_4461_43640# a_3271_43268# a_4352_43640# VSS.t2110 sky130_fd_pr__special_nfet_01v8 ad=0.0669 pd=0.75 as=0.0711 ps=0.755 w=0.36 l=0.15
X156 a_15037_46232# a_n1067_42718.t2 a_15121_46232# VDD.t266 sky130_fd_pr__pfet_01v8_hvt ad=0.26 pd=2.52 as=0.135 ps=1.27 w=1 l=0.15
X157 VSS.t2197 a_n1920_42692# a_n1890_42718.t1 VSS.t2196 sky130_fd_pr__nfet_01v8 ad=0.097 pd=0.975 as=0.08775 ps=0.92 w=0.65 l=0.15
X158 VDAC_P.t1059 C10_P_btm.t579 sky130_fd_pr__cap_mim_m3_1 l=1 w=1
X159 VSS.t2442 VSS.t2443 sky130_fd_pr__cap_mim_m3_1 l=1 w=1
X160 a_10949_43628# a_10905_43236# a_10783_43640# VSS.t2141 sky130_fd_pr__nfet_01v8 ad=0.0441 pd=0.63 as=0.1401 ps=1.1 w=0.42 l=0.15
X161 VDD.t2197 a_7195_44868# a_7182_45260# VDD.t2196 sky130_fd_pr__pfet_01v8_hvt ad=0.0819 pd=0.81 as=0.0567 ps=0.69 w=0.42 l=0.15
X162 VDAC_N.t2095 C3_N_btm.t3 sky130_fd_pr__cap_mim_m3_1 l=1 w=1
X163 VSS.t74 a_n1551_45412.t9 a_n2293_44332# VSS.t73 sky130_fd_pr__nfet_01v8 ad=0.169 pd=1.82 as=0.08775 ps=0.92 w=0.65 l=0.15
X164 VDD.t2130 a_22399_44894# a_22959_43806# VDD.t873 sky130_fd_pr__pfet_01v8_hvt ad=0.149 pd=1.325 as=0.1664 ps=1.8 w=0.64 l=0.15
X165 VDAC_P.t2089 C8_P_btm.t23 sky130_fd_pr__cap_mim_m3_1 l=1 w=1
X166 a_834_46348# a_n243_45982# a_672_45982# VDD.t854 sky130_fd_pr__pfet_01v8_hvt ad=0.0567 pd=0.69 as=0.0588 ps=0.7 w=0.42 l=0.15
X167 VSS.t408 a_1334_43494.t26 a_1339_43315# VSS.t407 sky130_fd_pr__nfet_01v8 ad=0.10025 pd=0.985 as=0.1092 ps=1.36 w=0.42 l=0.15
X168 VDAC_N.t1061 C8_N_btm.t144 sky130_fd_pr__cap_mim_m3_1 l=1 w=1
X169 VDD.t2785 a_22775_42718# a_22465_38541# VDD.t2784 sky130_fd_pr__pfet_01v8_hvt ad=0.3 pd=2.6 as=0.14 ps=1.28 w=1 l=0.15
X170 VDAC_N.t2093 C10_N_btm.t941 sky130_fd_pr__cap_mim_m3_1 l=1 w=1
X171 VDAC_P.t543 C7_P_btm.t62 sky130_fd_pr__cap_mim_m3_1 l=1 w=1
X172 VDAC_P.t2087 C10_P_btm.t664 sky130_fd_pr__cap_mim_m3_1 l=1 w=1
X173 VDAC_P.t1057 C8_P_btm.t20 sky130_fd_pr__cap_mim_m3_1 l=1 w=1
X174 VDAC_P.t2085 C8_P_btm.t256 sky130_fd_pr__cap_mim_m3_1 l=1 w=1
X175 VDAC_N.t157 C9_N_btm.t398 sky130_fd_pr__cap_mim_m3_1 l=1 w=1
X176 VDAC_P.t285 C9_P_btm.t39 sky130_fd_pr__cap_mim_m3_1 l=1 w=1
X177 a_3897_45444# a_3731_45444# VSS.t2151 VSS.t2150 sky130_fd_pr__nfet_01v8 ad=0.1092 pd=1.36 as=0.0567 ps=0.69 w=0.42 l=0.15
X178 VDAC_N.t2091 C10_N_btm.t975 sky130_fd_pr__cap_mim_m3_1 l=1 w=1
X179 VSS.t3574 C10_P_btm.t19 sky130_fd_pr__cap_mim_m3_1 l=1 w=1
X180 VDAC_P.t2083 C10_P_btm.t894 sky130_fd_pr__cap_mim_m3_1 l=1 w=1
X181 a_11599_42883# a_5734_30651.t4 VDD.t378 VDD.t377 sky130_fd_pr__pfet_01v8_hvt ad=0.2054 pd=2.1 as=0.11455 ps=1.08 w=0.79 l=0.15
X182 VDAC_N.t1059 C10_N_btm.t979 sky130_fd_pr__cap_mim_m3_1 l=1 w=1
X183 VDAC_N.t2089 C10_N_btm.t994 sky130_fd_pr__cap_mim_m3_1 l=1 w=1
X184 VDD.t2109 a_6635_47044# a_n690_43494.t2 VDD.t2108 sky130_fd_pr__pfet_01v8_hvt ad=0.1625 pd=1.325 as=0.135 ps=1.27 w=1 l=0.15
X185 VDAC_N.t543 C10_N_btm.t1055 sky130_fd_pr__cap_mim_m3_1 l=1 w=1
X186 a_n237_45454.t0 a_11971_46500# VSS.t2189 VSS.t2188 sky130_fd_pr__nfet_01v8 ad=0.0567 pd=0.69 as=0.1092 ps=1.36 w=0.42 l=0.15
X187 VDD.t2144 a_2216_46758# a_2167_46526# VDD.t2143 sky130_fd_pr__pfet_01v8_hvt ad=0.15835 pd=1.395 as=0.26 ps=2.52 w=1 l=0.15
X188 VDAC_N.t2087 C9_N_btm.t400 sky130_fd_pr__cap_mim_m3_1 l=1 w=1
X189 VDAC_N.t1057 C9_N_btm.t405 sky130_fd_pr__cap_mim_m3_1 l=1 w=1
X190 VDAC_N.t2085 C9_N_btm.t435 sky130_fd_pr__cap_mim_m3_1 l=1 w=1
X191 a_6391_46219# a_6235_46124# a_6536_46348# VDD.t2239 sky130_fd_pr__pfet_01v8_hvt ad=0.07245 pd=0.765 as=0.1155 ps=0.97 w=0.42 l=0.15
X192 C8_N_btm.t4 a_17738_32299.t4 VSS.t451 VSS.t450 sky130_fd_pr__nfet_01v8 ad=1.32 pd=8.33 as=1.32 ps=8.33 w=8 l=0.15
X193 a_9863_43958# a_n237_45454.t15 VDD.t416 VDD.t415 sky130_fd_pr__pfet_01v8_hvt ad=0.0567 pd=0.69 as=0.16655 ps=1.39 w=0.42 l=0.15
X194 VSS.t2127 a_n2840_47044# a_n2810_47070.t1 VSS.t2126 sky130_fd_pr__nfet_01v8 ad=0.097 pd=0.975 as=0.08775 ps=0.92 w=0.65 l=0.15
X195 VDAC_P.t1055 C9_P_btm.t518 sky130_fd_pr__cap_mim_m3_1 l=1 w=1
X196 VSS.t2258 a_20383_42718# a_6974_31099.t1 VSS.t2257 sky130_fd_pr__nfet_01v8 ad=0.17225 pd=1.83 as=0.08775 ps=0.92 w=0.65 l=0.15
X197 a_n2840_45412# a_n2661_45420.t5 VDD.t307 VDD.t306 sky130_fd_pr__pfet_01v8_hvt ad=0.1664 pd=1.8 as=0.149 ps=1.325 w=0.64 l=0.15
X198 VDAC_N.t285 C10_N_btm.t54 sky130_fd_pr__cap_mim_m3_1 l=1 w=1
X199 VDAC_P.t2081 C10_P_btm.t898 sky130_fd_pr__cap_mim_m3_1 l=1 w=1
X200 VDD.t2182 a_9343_43806# a_5655_43780# VDD.t2181 sky130_fd_pr__pfet_01v8_hvt ad=0.26 pd=2.52 as=0.135 ps=1.27 w=1 l=0.15
X201 VDAC_P.t541 C9_P_btm.t189 sky130_fd_pr__cap_mim_m3_1 l=1 w=1
X202 VDAC_N.t2083 C7_N_btm.t120 sky130_fd_pr__cap_mim_m3_1 l=1 w=1
X203 VDAC_P.t2079 C9_P_btm.t55 sky130_fd_pr__cap_mim_m3_1 l=1 w=1
X204 VDAC_P.t1053 C10_P_btm.t961 sky130_fd_pr__cap_mim_m3_1 l=1 w=1
X205 VDAC_N.t1055 C9_N_btm.t483 sky130_fd_pr__cap_mim_m3_1 l=1 w=1
X206 C9_P_btm.t0 a_n2442_44894.t4 VSS.t367 VSS.t366 sky130_fd_pr__nfet_01v8 ad=1.32 pd=8.33 as=1.32 ps=8.33 w=8 l=0.15
X207 VDAC_P.t2077 C10_P_btm.t974 sky130_fd_pr__cap_mim_m3_1 l=1 w=1
X208 VDAC_P.t2135 C7_P_btm.t10 sky130_fd_pr__cap_mim_m3_1 l=1 w=1
X209 VSS.t3755 C0_dummy_N_btm.t3 sky130_fd_pr__cap_mim_m3_1 l=1 w=1
X210 VDAC_N.t2081 C10_N_btm.t51 sky130_fd_pr__cap_mim_m3_1 l=1 w=1
X211 VDAC_N.t541 C10_N_btm.t46 sky130_fd_pr__cap_mim_m3_1 l=1 w=1
X212 VSS.t2343 VSS.t2344 sky130_fd_pr__cap_mim_m3_1 l=1 w=1
X213 VDAC_N.t2079 C10_N_btm.t43 sky130_fd_pr__cap_mim_m3_1 l=1 w=1
X214 VDAC_N.t1053 C8_N_btm.t177 sky130_fd_pr__cap_mim_m3_1 l=1 w=1
X215 VSS.t426 a_n690_43494.t21 a_2443_43806# VSS.t425 sky130_fd_pr__nfet_01v8 ad=0.0567 pd=0.69 as=0.1092 ps=1.36 w=0.42 l=0.15
X216 a_14545_44569# a_14635_44324# VDD.t2160 VDD.t2159 sky130_fd_pr__pfet_01v8_hvt ad=0.2054 pd=2.1 as=0.11455 ps=1.08 w=0.79 l=0.15
X217 VDAC_P.t2075 C7_P_btm.t56 sky130_fd_pr__cap_mim_m3_1 l=1 w=1
X218 VDAC_N.t2077 C9_N_btm.t254 sky130_fd_pr__cap_mim_m3_1 l=1 w=1
X219 VDAC_P.t1051 C10_P_btm.t220 sky130_fd_pr__cap_mim_m3_1 l=1 w=1
X220 VDAC_P.t2073 C10_P_btm.t1053 sky130_fd_pr__cap_mim_m3_1 l=1 w=1
X221 VDAC_P.t539 C10_P_btm.t56 sky130_fd_pr__cap_mim_m3_1 l=1 w=1
X222 VDAC_P.t2071 C9_P_btm.t509 sky130_fd_pr__cap_mim_m3_1 l=1 w=1
X223 VDAC_P.t1049 C10_P_btm.t52 sky130_fd_pr__cap_mim_m3_1 l=1 w=1
X224 VDAC_N.t2135 C8_N_btm.t186 sky130_fd_pr__cap_mim_m3_1 l=1 w=1
X225 VDAC_P.t2069 C9_P_btm.t508 sky130_fd_pr__cap_mim_m3_1 l=1 w=1
X226 a_n2661_44332# a_n1827_45412.t8 VDD.t312 VDD.t280 sky130_fd_pr__pfet_01v8_hvt ad=0.135 pd=1.27 as=0.26 ps=2.52 w=1 l=0.15
X227 VDAC_P.t283 C10_P_btm.t49 sky130_fd_pr__cap_mim_m3_1 l=1 w=1
X228 VDAC_P.t2067 C10_P_btm.t45 sky130_fd_pr__cap_mim_m3_1 l=1 w=1
X229 VDAC_P.t1047 C10_P_btm.t41 sky130_fd_pr__cap_mim_m3_1 l=1 w=1
X230 VDAC_N.t2075 C10_N_btm.t39 sky130_fd_pr__cap_mim_m3_1 l=1 w=1
X231 VDAC_N.t1051 C10_N_btm.t36 sky130_fd_pr__cap_mim_m3_1 l=1 w=1
X232 VDAC_N.t2073 C10_N_btm.t1035 sky130_fd_pr__cap_mim_m3_1 l=1 w=1
X233 VDAC_N.t539 C10_N_btm.t478 sky130_fd_pr__cap_mim_m3_1 l=1 w=1
X234 a_18319_44868# a_15730_45670.t25 VDD.t504 VDD.t503 sky130_fd_pr__pfet_01v8_hvt ad=0.0609 pd=0.71 as=0.2279 ps=1.74 w=0.42 l=0.15
X235 VSS.t2395 VSS.t2396 sky130_fd_pr__cap_mim_m3_1 l=1 w=1
X236 VSS.t2345 VSS.t2346 sky130_fd_pr__cap_mim_m3_1 l=1 w=1
X237 VDAC_P.t2065 C10_P_btm.t37 sky130_fd_pr__cap_mim_m3_1 l=1 w=1
X238 VSS.t2264 a_8192_44874# a_8204_45412# VSS.t2263 sky130_fd_pr__nfet_01v8 ad=0.0567 pd=0.69 as=0.0567 ps=0.69 w=0.42 l=0.15
X239 VDAC_N.t2071 C9_N_btm.t121 sky130_fd_pr__cap_mim_m3_1 l=1 w=1
X240 VDAC_P.t537 C10_P_btm.t34 sky130_fd_pr__cap_mim_m3_1 l=1 w=1
X241 VDAC_N.t1049 C10_N_btm.t222 sky130_fd_pr__cap_mim_m3_1 l=1 w=1
X242 VDAC_P.t2063 C8_P_btm.t111 sky130_fd_pr__cap_mim_m3_1 l=1 w=1
X243 VSS.t2351 VSS.t2352 sky130_fd_pr__cap_mim_m3_1 l=1 w=1
X244 VDAC_N.t2069 C10_N_btm.t111 sky130_fd_pr__cap_mim_m3_1 l=1 w=1
X245 VSS.t376 a_1429_47222.t4 a_1431_47070# VSS.t375 sky130_fd_pr__nfet_01v8 ad=0.08775 pd=0.92 as=0.169 ps=1.82 w=0.65 l=0.15
X246 VDAC_N.t283 C10_N_btm.t95 sky130_fd_pr__cap_mim_m3_1 l=1 w=1
X247 VSS.t2193 a_14635_44324# a_15323_44894# VSS.t2192 sky130_fd_pr__nfet_01v8 ad=0.097 pd=0.975 as=0.1092 ps=1.36 w=0.42 l=0.15
X248 VDAC_P.t1045 C10_P_btm.t1034 sky130_fd_pr__cap_mim_m3_1 l=1 w=1
X249 VDAC_P.t2061 C10_P_btm.t476 sky130_fd_pr__cap_mim_m3_1 l=1 w=1
X250 VSS.t3276 a_n2810_44894.t6 C10_P_btm.t1074 VSS.t3275 sky130_fd_pr__nfet_01v8 ad=1.32 pd=8.33 as=1.32 ps=8.33 w=8 l=0.15
X251 VDAC_N.t2067 C5_N_btm.t5 sky130_fd_pr__cap_mim_m3_1 l=1 w=1
X252 VSS.t2174 a_n2472_43236# a_n2442_43262.t1 VSS.t805 sky130_fd_pr__nfet_01v8 ad=0.097 pd=0.975 as=0.08775 ps=0.92 w=0.65 l=0.15
X253 VSS.t131 a_n1551_44324.t9 a_n2661_43780# VSS.t130 sky130_fd_pr__nfet_01v8 ad=0.169 pd=1.82 as=0.08775 ps=0.92 w=0.65 l=0.15
X254 VDAC_N.t1047 C10_N_btm.t55 sky130_fd_pr__cap_mim_m3_1 l=1 w=1
X255 VDAC_N.t2065 VSS.t3309 sky130_fd_pr__cap_mim_m3_1 l=1 w=1
X256 a_15133_45144# a_1429_47222.t21 a_15049_45144# VDD.t329 sky130_fd_pr__pfet_01v8_hvt ad=0.135 pd=1.27 as=0.135 ps=1.27 w=1 l=0.15
X257 VDAC_N.t537 C9_N_btm.t57 sky130_fd_pr__cap_mim_m3_1 l=1 w=1
X258 VDAC_N.t2063 C10_N_btm.t47 sky130_fd_pr__cap_mim_m3_1 l=1 w=1
X259 VDAC_N.t1045 C9_N_btm.t50 sky130_fd_pr__cap_mim_m3_1 l=1 w=1
X260 VDAC_N.t2061 C10_N_btm.t40 sky130_fd_pr__cap_mim_m3_1 l=1 w=1
X261 VDD.t376 a_n331_42718.t2 a_15121_46232# VDD.t375 sky130_fd_pr__pfet_01v8_hvt ad=0.1575 pd=1.315 as=0.165 ps=1.33 w=1 l=0.15
X262 a_4005_46500# a_3787_46904# VDD.t2107 VDD.t2106 sky130_fd_pr__pfet_01v8_hvt ad=0.12915 pd=1.185 as=0.2184 ps=2.2 w=0.84 l=0.15
X263 VDAC_N.t155 C9_N_btm.t25 sky130_fd_pr__cap_mim_m3_1 l=1 w=1
X264 VDAC_P.t155 C10_P_btm.t109 sky130_fd_pr__cap_mim_m3_1 l=1 w=1
X265 a_3754_39466# a_7754_39300# VSS.t693 sky130_fd_pr__res_high_po_0p35 l=18
X266 VDAC_P.t2059 C10_P_btm.t94 sky130_fd_pr__cap_mim_m3_1 l=1 w=1
X267 a_12121_45956# a_11788_46134# VSS.t1646 VSS.t1645 sky130_fd_pr__nfet_01v8 ad=0.1092 pd=1.36 as=0.1449 ps=1.11 w=0.42 l=0.15
X268 VDAC_P.t1043 C8_P_btm.t47 sky130_fd_pr__cap_mim_m3_1 l=1 w=1
X269 VDAC_P.t2057 C10_P_btm.t53 sky130_fd_pr__cap_mim_m3_1 l=1 w=1
X270 C0_dummy_P_btm.t1 a_6974_31099.t4 VCM.t22 VSS.t305 sky130_fd_pr__nfet_01v8_lvt ad=0.62 pd=4.62 as=0.62 ps=4.62 w=2 l=0.15
X271 a_13157_43628# a_13113_43236# a_12991_43640# VSS.t1651 sky130_fd_pr__nfet_01v8 ad=0.0441 pd=0.63 as=0.1401 ps=1.1 w=0.42 l=0.15
X272 VDD.t1594 a_570_44324# a_n1459_43236.t6 VDD.t1593 sky130_fd_pr__pfet_01v8_hvt ad=0.26 pd=2.52 as=0.135 ps=1.27 w=1 l=0.15
X273 VDAC_N.t2059 C10_N_btm.t1036 sky130_fd_pr__cap_mim_m3_1 l=1 w=1
X274 VDAC_P.t535 C8_P_btm.t96 sky130_fd_pr__cap_mim_m3_1 l=1 w=1
X275 VDAC_N.t1043 C10_N_btm.t223 sky130_fd_pr__cap_mim_m3_1 l=1 w=1
X276 VDAC_P.t2055 C8_P_btm.t24 sky130_fd_pr__cap_mim_m3_1 l=1 w=1
X277 a_n2840_45956# a_n2661_45956.t4 VSS.t431 VSS.t353 sky130_fd_pr__nfet_01v8 ad=0.1092 pd=1.36 as=0.097 ps=0.975 w=0.42 l=0.15
X278 VSS.t3648 C10_P_btm.t16 sky130_fd_pr__cap_mim_m3_1 l=1 w=1
X279 VDAC_N.t2057 C10_N_btm.t96 sky130_fd_pr__cap_mim_m3_1 l=1 w=1
X280 VDAC_N.t535 C10_N_btm.t48 sky130_fd_pr__cap_mim_m3_1 l=1 w=1
X281 VSS.t3463 VDD.t3213 VSS.t3462 VSS.t3461 sky130_fd_pr__nfet_01v8 ad=0.143 pd=1.62 as=0 ps=0 w=0.55 l=1.05
X282 VDAC_N.t2055 C8_N_btm.t213 sky130_fd_pr__cap_mim_m3_1 l=1 w=1
X283 VDAC_P.t1041 C10_P_btm.t46 sky130_fd_pr__cap_mim_m3_1 l=1 w=1
X284 VSS.t3646 C1_P_btm.t2 sky130_fd_pr__cap_mim_m3_1 l=1 w=1
X285 VSS.t2584 a_9349_46539# a_9768_46892# VSS.t2583 sky130_fd_pr__nfet_01v8 ad=0.11285 pd=1.045 as=0.0693 ps=0.75 w=0.42 l=0.15
X286 VDAC_P.t2053 C9_P_btm.t507 sky130_fd_pr__cap_mim_m3_1 l=1 w=1
X287 a_15192_46500# a_15163_45670.t5 a_15415_46846# VSS.t115 sky130_fd_pr__nfet_01v8 ad=0.10725 pd=0.98 as=0.10725 ps=0.98 w=0.65 l=0.15
X288 VSS.t3189 VDD.t3165 VSS.t3188 VSS.t3187 sky130_fd_pr__nfet_01v8 ad=0.143 pd=1.62 as=0 ps=0 w=0.55 l=0.59
X289 VSS.t1661 a_5441_46500# a_5089_47044# VSS.t1660 sky130_fd_pr__nfet_01v8 ad=0.203125 pd=1.275 as=0.169 ps=1.82 w=0.65 l=0.15
X290 a_15582_45982# a_14955_45982# VDD.t1605 VDD.t1604 sky130_fd_pr__pfet_01v8_hvt ad=0.26 pd=2.52 as=0.1575 ps=1.315 w=1 l=0.15
X291 SMPL_ON_P.t4 a_n2038_35608# VDD.t2721 VDD.t2720 sky130_fd_pr__pfet_01v8_hvt ad=0.135 pd=1.27 as=0.26 ps=2.52 w=1 l=0.15
X292 a_n2472_46500# a_n2293_46508.t4 VSS.t106 VSS.t105 sky130_fd_pr__nfet_01v8 ad=0.1092 pd=1.36 as=0.097 ps=0.975 w=0.42 l=0.15
X293 VDAC_P.t281 C6_P_btm.t8 sky130_fd_pr__cap_mim_m3_1 l=1 w=1
X294 a_4514_43262# a_3437_43268# a_4352_43640# VDD.t1610 sky130_fd_pr__pfet_01v8_hvt ad=0.0567 pd=0.69 as=0.0588 ps=0.7 w=0.42 l=0.15
X295 a_12557_43806# a_11367_43806# a_12448_43806# VSS.t1676 sky130_fd_pr__special_nfet_01v8 ad=0.0669 pd=0.75 as=0.0711 ps=0.755 w=0.36 l=0.15
X296 VDAC_P.t2051 C10_P_btm.t38 sky130_fd_pr__cap_mim_m3_1 l=1 w=1
X297 VDAC_N.t1041 C10_N_btm.t1037 sky130_fd_pr__cap_mim_m3_1 l=1 w=1
X298 a_3787_46904# a_3271_46532# a_3692_46892# VSS.t1680 sky130_fd_pr__special_nfet_01v8 ad=0.0594 pd=0.69 as=0.066 ps=0.745 w=0.36 l=0.15
X299 VSS.t3720 C10_P_btm.t26 sky130_fd_pr__cap_mim_m3_1 l=1 w=1
X300 VSS.t611 a_13524_46832.t23 a_14373_47070# VSS.t610 sky130_fd_pr__nfet_01v8 ad=0.13165 pd=1.14 as=0.0441 ps=0.63 w=0.42 l=0.15
X301 a_82_45670# a_847_45956# VSS.t1685 VSS.t1684 sky130_fd_pr__nfet_01v8 ad=0.169 pd=1.82 as=0.2087 ps=2.02 w=0.65 l=0.15
X302 VDAC_N.t2053 C10_N_btm.t1028 sky130_fd_pr__cap_mim_m3_1 l=1 w=1
X303 VDAC_P.t1039 C9_P_btm.t506 sky130_fd_pr__cap_mim_m3_1 l=1 w=1
X304 VIN_N.t9 EN_VIN_BSTR_N.t7 C7_N_btm.t2 VSS.t436 sky130_fd_pr__nfet_01v8 ad=0.33 pd=2.33 as=0.62 ps=4.62 w=2 l=0.15
X305 VDAC_N.t281 C7_N_btm.t72 sky130_fd_pr__cap_mim_m3_1 l=1 w=1
X306 VSS.t3165 VDD.t3157 VSS.t3164 VSS.t3163 sky130_fd_pr__nfet_01v8 ad=0.143 pd=1.62 as=0 ps=0 w=0.55 l=1.05
X307 VDAC_P.t2049 C9_P_btm.t505 sky130_fd_pr__cap_mim_m3_1 l=1 w=1
X308 VDAC_P.t533 C9_P_btm.t504 sky130_fd_pr__cap_mim_m3_1 l=1 w=1
X309 VDD.t447 a_7754_40130.t9 a_11206_38545.t3 VDD.t446 sky130_fd_pr__pfet_01v8 ad=2.32 pd=16.58 as=2.32 ps=16.58 w=8 l=0.5
X310 VDAC_P.t2047 C10_P_btm.t1035 sky130_fd_pr__cap_mim_m3_1 l=1 w=1
X311 VDAC_N.t2051 C10_N_btm.t508 sky130_fd_pr__cap_mim_m3_1 l=1 w=1
X312 VSS.t3604 C7_N_btm.t133 sky130_fd_pr__cap_mim_m3_1 l=1 w=1
X313 VDAC_N.t1039 C10_N_btm.t1025 sky130_fd_pr__cap_mim_m3_1 l=1 w=1
X314 VSS.t491 a_13248_45956.t25 a_15079_46134# VSS.t490 sky130_fd_pr__nfet_01v8 ad=0.169 pd=1.82 as=0.08775 ps=0.92 w=0.65 l=0.15
X315 VDAC_N.t2049 C10_N_btm.t1024 sky130_fd_pr__cap_mim_m3_1 l=1 w=1
X316 VDAC_N.t533 C10_N_btm.t1023 sky130_fd_pr__cap_mim_m3_1 l=1 w=1
X317 VDAC_N.t2047 C10_N_btm.t1022 sky130_fd_pr__cap_mim_m3_1 l=1 w=1
X318 VDAC_P.t1037 C10_P_btm.t221 sky130_fd_pr__cap_mim_m3_1 l=1 w=1
X319 VDAC_N.t1037 C9_N_btm.t22 sky130_fd_pr__cap_mim_m3_1 l=1 w=1
X320 VDD.t363 a_n690_43494.t15 a_2443_43806# VDD.t362 sky130_fd_pr__pfet_01v8_hvt ad=0.0864 pd=0.91 as=0.1664 ps=1.8 w=0.64 l=0.15
X321 VDAC_N.t2045 C9_N_btm.t18 sky130_fd_pr__cap_mim_m3_1 l=1 w=1
X322 VDAC_P.t2045 C10_P_btm.t1026 sky130_fd_pr__cap_mim_m3_1 l=1 w=1
X323 VDD.t2298 VSS.t3713 VDD.t2297 VDD.t2296 sky130_fd_pr__pfet_01v8_hvt ad=0.2262 pd=2.26 as=0 ps=0 w=0.87 l=0.59
X324 VDAC_P.t91 C9_P_btm.t503 sky130_fd_pr__cap_mim_m3_1 l=1 w=1
X325 VDAC_P.t2043 VSS.t3380 sky130_fd_pr__cap_mim_m3_1 l=1 w=1