*SPEF "ieee 1481-1999"
*DESIGN "state_machine"
*DATE "18:30:34 Sunday April 07, 2024"
*VENDOR "The OpenROAD Project"
*PROGRAM "OpenROAD"
*VERSION "0889970d1790a2617e69f253221b8bd7626e51dc"
*DESIGN_FLOW "NAME_SCOPE LOCAL" "PIN_CAP NONE"
*DIVIDER /
*DELIMITER :
*BUS_DELIMITER []
*T_UNIT 1 NS
*C_UNIT 1 PF
*R_UNIT 1 OHM
*L_UNIT 1 HENRY

*NAME_MAP
*3 clk
*4 clk_data
*5 comp_n
*6 comp_p
*7 data[0]
*8 data[1]
*9 data[2]
*10 data[3]
*11 data[4]
*12 data[5]
*13 debug_mux[0]
*14 debug_mux[1]
*15 debug_mux[2]
*16 debug_mux[3]
*17 debug_out
*18 en_comp
*19 en_offset_cal
*20 en_offset_cal_o
*21 en_vcm_sw_o
*22 en_vcm_sw_o_i
*23 offset_cal_cycle
*24 rst_z
*25 sample_o
*26 start
*27 vcm_dummy_o
*28 vcm_o[0]
*29 vcm_o[10]
*30 vcm_o[1]
*31 vcm_o[2]
*32 vcm_o[3]
*33 vcm_o[4]
*34 vcm_o[5]
*35 vcm_o[6]
*36 vcm_o[7]
*37 vcm_o[8]
*38 vcm_o[9]
*39 vcm_o_i[0]
*40 vcm_o_i[10]
*41 vcm_o_i[1]
*42 vcm_o_i[2]
*43 vcm_o_i[3]
*44 vcm_o_i[4]
*45 vcm_o_i[5]
*46 vcm_o_i[6]
*47 vcm_o_i[7]
*48 vcm_o_i[8]
*49 vcm_o_i[9]
*50 vin_n_sw_on
*51 vin_p_sw_on
*52 vref_z_n_o[0]
*53 vref_z_n_o[10]
*54 vref_z_n_o[1]
*55 vref_z_n_o[2]
*56 vref_z_n_o[3]
*57 vref_z_n_o[4]
*58 vref_z_n_o[5]
*59 vref_z_n_o[6]
*60 vref_z_n_o[7]
*61 vref_z_n_o[8]
*62 vref_z_n_o[9]
*63 vref_z_p_o[0]
*64 vref_z_p_o[10]
*65 vref_z_p_o[1]
*66 vref_z_p_o[2]
*67 vref_z_p_o[3]
*68 vref_z_p_o[4]
*69 vref_z_p_o[5]
*70 vref_z_p_o[6]
*71 vref_z_p_o[7]
*72 vref_z_p_o[8]
*73 vref_z_p_o[9]
*74 vss_n_o[0]
*75 vss_n_o[10]
*76 vss_n_o[1]
*77 vss_n_o[2]
*78 vss_n_o[3]
*79 vss_n_o[4]
*80 vss_n_o[5]
*81 vss_n_o[6]
*82 vss_n_o[7]
*83 vss_n_o[8]
*84 vss_n_o[9]
*85 vss_p_o[0]
*86 vss_p_o[10]
*87 vss_p_o[1]
*88 vss_p_o[2]
*89 vss_p_o[3]
*90 vss_p_o[4]
*91 vss_p_o[5]
*92 vss_p_o[6]
*93 vss_p_o[7]
*94 vss_p_o[8]
*95 vss_p_o[9]
*96 _000_
*97 _001_
*98 _002_
*99 _003_
*100 _004_
*101 _005_
*102 _006_
*103 _007_
*104 _008_
*105 _009_
*106 _010_
*107 _011_
*108 _012_
*109 _013_
*110 _014_
*111 _015_
*112 _016_
*113 _017_
*114 _018_
*115 _019_
*116 _020_
*117 _021_
*118 _022_
*119 _023_
*120 _024_
*121 _025_
*122 _026_
*123 _027_
*124 _028_
*125 _029_
*126 _030_
*127 _031_
*128 _032_
*129 _033_
*130 _034_
*131 _035_
*132 _036_
*133 _037_
*134 _038_
*135 _039_
*136 _040_
*137 _041_
*138 _042_
*139 _043_
*140 _044_
*141 _045_
*142 _046_
*143 _047_
*144 _048_
*145 _049_
*146 _050_
*147 _051_
*148 _052_
*149 _053_
*150 _054_
*151 _055_
*152 _056_
*153 _057_
*154 _058_
*155 _059_
*156 _060_
*157 _061_
*158 _062_
*159 _063_
*160 _064_
*161 _065_
*162 _066_
*163 _067_
*164 _068_
*165 _069_
*166 _070_
*167 _071_
*168 _072_
*169 _073_
*170 _074_
*171 _075_
*172 _076_
*173 _077_
*174 _078_
*175 _079_
*176 _080_
*177 _081_
*178 _082_
*179 _083_
*180 _084_
*181 _085_
*182 _086_
*183 counter\[0\]
*184 counter\[10\]
*185 counter\[11\]
*186 counter\[1\]
*187 counter\[2\]
*188 counter\[3\]
*189 counter\[4\]
*190 counter\[5\]
*191 counter\[6\]
*192 counter\[7\]
*193 counter\[8\]
*194 counter\[9\]
*195 counter_sample
*196 net1
*197 net10
*198 net100
*199 net101
*200 net102
*201 net103
*202 net104
*203 net105
*204 net106
*205 net107
*206 net108
*207 net11
*208 net12
*209 net13
*210 net14
*211 net15
*212 net16
*213 net17
*214 net18
*215 net19
*216 net2
*217 net20
*218 net21
*219 net22
*220 net23
*221 net24
*222 net25
*223 net26
*224 net27
*225 net28
*226 net29
*227 net3
*228 net30
*229 net31
*230 net32
*231 net33
*232 net34
*233 net35
*234 net36
*235 net37
*236 net38
*237 net39
*238 net4
*239 net40
*240 net41
*241 net42
*242 net43
*243 net44
*244 net45
*245 net46
*246 net47
*247 net48
*248 net49
*249 net5
*250 net50
*251 net51
*252 net52
*253 net53
*254 net54
*255 net55
*256 net56
*257 net57
*258 net58
*259 net59
*260 net6
*261 net60
*262 net61
*263 net62
*264 net63
*265 net64
*266 net65
*267 net66
*268 net67
*269 net68
*270 net69
*271 net7
*272 net70
*273 net71
*274 net72
*275 net73
*276 net74
*277 net75
*278 net76
*279 net77
*280 net78
*281 net79
*282 net8
*283 net80
*284 net81
*285 net82
*286 net83
*287 net84
*288 net85
*289 net86
*290 net87
*291 net88
*292 net89
*293 net9
*294 net90
*295 net91
*296 net92
*297 net93
*298 net94
*299 net95
*300 net96
*301 net97
*302 net98
*303 net99
*304 result\[0\]
*305 result\[10\]
*306 result\[11\]
*307 result\[1\]
*308 result\[2\]
*309 result\[3\]
*310 result\[4\]
*311 result\[5\]
*312 result\[6\]
*313 result\[7\]
*314 result\[8\]
*315 result\[9\]
*316 state\[0\]
*317 state\[1\]
*318 ANTENNA_1
*319 FILLER_0_0_100
*320 FILLER_0_0_109
*321 FILLER_0_0_113
*322 FILLER_0_0_120
*323 FILLER_0_0_129
*324 FILLER_0_0_135
*325 FILLER_0_0_141
*326 FILLER_0_0_150
*327 FILLER_0_0_155
*328 FILLER_0_0_163
*329 FILLER_0_0_167
*330 FILLER_0_0_172
*331 FILLER_0_0_180
*332 FILLER_0_0_189
*333 FILLER_0_0_195
*334 FILLER_0_0_201
*335 FILLER_0_0_205
*336 FILLER_0_0_209
*337 FILLER_0_0_220
*338 FILLER_0_0_225
*339 FILLER_0_0_229
*340 FILLER_0_0_233
*341 FILLER_0_0_237
*342 FILLER_0_0_24
*343 FILLER_0_0_250
*344 FILLER_0_0_253
*345 FILLER_0_0_260
*346 FILLER_0_0_270
*347 FILLER_0_0_281
*348 FILLER_0_0_32
*349 FILLER_0_0_52
*350 FILLER_0_0_61
*351 FILLER_0_0_70
*352 FILLER_0_0_75
*353 FILLER_0_0_83
*354 FILLER_0_0_85
*355 FILLER_0_0_89
*356 FILLER_0_0_95
*357 FILLER_0_1_104
*358 FILLER_0_1_113
*359 FILLER_0_1_124
*360 FILLER_0_1_130
*361 FILLER_0_1_143
*362 FILLER_0_1_192
*363 FILLER_0_1_21
*364 FILLER_0_1_225
*365 FILLER_0_1_257
*366 FILLER_0_1_47
*367 FILLER_0_1_60
*368 FILLER_0_1_96
*369 FILLER_0_2_110
*370 FILLER_0_2_14
*371 FILLER_0_2_146
*372 FILLER_0_2_156
*373 FILLER_0_2_185
*374 FILLER_0_2_217
*375 FILLER_0_2_249
*376 FILLER_0_2_259
*377 FILLER_0_2_26
*378 FILLER_0_2_29
*379 FILLER_0_2_85
*380 FILLER_0_3_100
*381 FILLER_0_3_104
*382 FILLER_0_3_120
*383 FILLER_0_3_155
*384 FILLER_0_3_163
*385 FILLER_0_3_167
*386 FILLER_0_3_190
*387 FILLER_0_3_20
*388 FILLER_0_3_209
*389 FILLER_0_3_225
*390 FILLER_0_3_250
*391 FILLER_0_3_262
*392 FILLER_0_3_28
*393 FILLER_0_3_66
*394 FILLER_0_3_92
*395 FILLER_0_4_125
*396 FILLER_0_4_136
*397 FILLER_0_4_141
*398 FILLER_0_4_149
*399 FILLER_0_4_161
*400 FILLER_0_4_167
*401 FILLER_0_4_17
*402 FILLER_0_4_182
*403 FILLER_0_4_194
*404 FILLER_0_4_205
*405 FILLER_0_4_220
*406 FILLER_0_4_224
*407 FILLER_0_4_239
*408 FILLER_0_4_25
*409 FILLER_0_4_251
*410 FILLER_0_4_253
*411 FILLER_0_4_265
*412 FILLER_0_4_273
*413 FILLER_0_4_29
*414 FILLER_0_4_41
*415 FILLER_0_4_59
*416 FILLER_0_4_68
*417 FILLER_0_4_80
*418 FILLER_0_4_94
*419 FILLER_0_4_98
*420 FILLER_0_5_129
*421 FILLER_0_5_139
*422 FILLER_0_5_143
*423 FILLER_0_5_165
*424 FILLER_0_5_187
*425 FILLER_0_5_20
*426 FILLER_0_5_215
*427 FILLER_0_5_223
*428 FILLER_0_5_225
*429 FILLER_0_5_249
*430 FILLER_0_5_261
*431 FILLER_0_5_28
*432 FILLER_0_5_64
*433 FILLER_0_5_72
*434 FILLER_0_6_11
*435 FILLER_0_6_132
*436 FILLER_0_6_170
*437 FILLER_0_6_174
*438 FILLER_0_6_205
*439 FILLER_0_6_222
*440 FILLER_0_6_23
*441 FILLER_0_6_246
*442 FILLER_0_6_253
*443 FILLER_0_6_265
*444 FILLER_0_6_27
*445 FILLER_0_6_277
*446 FILLER_0_6_29
*447 FILLER_0_6_94
*448 FILLER_0_7_107
*449 FILLER_0_7_11
*450 FILLER_0_7_133
*451 FILLER_0_7_176
*452 FILLER_0_7_209
*453 FILLER_0_7_223
*454 FILLER_0_7_23
*455 FILLER_0_7_252
*456 FILLER_0_7_264
*457 FILLER_0_7_281
*458 FILLER_0_7_57
*459 FILLER_0_7_67
*460 FILLER_0_8_100
*461 FILLER_0_8_124
*462 FILLER_0_8_131
*463 FILLER_0_8_135
*464 FILLER_0_8_141
*465 FILLER_0_8_15
*466 FILLER_0_8_168
*467 FILLER_0_8_172
*468 FILLER_0_8_180
*469 FILLER_0_8_188
*470 FILLER_0_8_194
*471 FILLER_0_8_219
*472 FILLER_0_8_227
*473 FILLER_0_8_243
*474 FILLER_0_8_251
*475 FILLER_0_8_253
*476 FILLER_0_8_265
*477 FILLER_0_8_27
*478 FILLER_0_8_273
*479 FILLER_0_8_62
*480 FILLER_0_8_74
*481 FILLER_0_8_81
*482 FILLER_0_8_95
*483 FILLER_0_9_104
*484 FILLER_0_9_116
*485 FILLER_0_9_123
*486 FILLER_0_9_135
*487 FILLER_0_9_139
*488 FILLER_0_9_152
*489 FILLER_0_9_162
*490 FILLER_0_9_169
*491 FILLER_0_9_173
*492 FILLER_0_9_177
*493 FILLER_0_9_189
*494 FILLER_0_9_197
*495 FILLER_0_9_20
*496 FILLER_0_9_211
*497 FILLER_0_9_215
*498 FILLER_0_9_223
*499 FILLER_0_9_225
*500 FILLER_0_9_235
*501 FILLER_0_9_247
*502 FILLER_0_9_251
*503 FILLER_0_9_257
*504 FILLER_0_9_272
*505 FILLER_0_9_29
*506 FILLER_0_9_50
*507 FILLER_0_9_57
*508 FILLER_0_9_66
*509 FILLER_0_9_78
*510 FILLER_0_9_91
*511 FILLER_0_9_97
*512 PHY_EDGE_ROW_0_Left_10
*513 PHY_EDGE_ROW_0_Right_0
*514 PHY_EDGE_ROW_1_Left_11
*515 PHY_EDGE_ROW_1_Right_1
*516 PHY_EDGE_ROW_2_Left_12
*517 PHY_EDGE_ROW_2_Right_2
*518 PHY_EDGE_ROW_3_Left_13
*519 PHY_EDGE_ROW_3_Right_3
*520 PHY_EDGE_ROW_4_Left_14
*521 PHY_EDGE_ROW_4_Right_4
*522 PHY_EDGE_ROW_5_Left_15
*523 PHY_EDGE_ROW_5_Right_5
*524 PHY_EDGE_ROW_6_Left_16
*525 PHY_EDGE_ROW_6_Right_6
*526 PHY_EDGE_ROW_7_Left_17
*527 PHY_EDGE_ROW_7_Right_7
*528 PHY_EDGE_ROW_8_Left_18
*529 PHY_EDGE_ROW_8_Right_8
*530 PHY_EDGE_ROW_9_Left_19
*531 PHY_EDGE_ROW_9_Right_9
*532 TAP_TAPCELL_ROW_0_20
*533 TAP_TAPCELL_ROW_0_21
*534 TAP_TAPCELL_ROW_0_22
*535 TAP_TAPCELL_ROW_0_23
*536 TAP_TAPCELL_ROW_0_24
*537 TAP_TAPCELL_ROW_0_25
*538 TAP_TAPCELL_ROW_0_26
*539 TAP_TAPCELL_ROW_0_27
*540 TAP_TAPCELL_ROW_0_28
*541 TAP_TAPCELL_ROW_0_29
*542 TAP_TAPCELL_ROW_1_30
*543 TAP_TAPCELL_ROW_1_31
*544 TAP_TAPCELL_ROW_1_32
*545 TAP_TAPCELL_ROW_1_33
*546 TAP_TAPCELL_ROW_1_34
*547 TAP_TAPCELL_ROW_2_35
*548 TAP_TAPCELL_ROW_2_36
*549 TAP_TAPCELL_ROW_2_37
*550 TAP_TAPCELL_ROW_2_38
*551 TAP_TAPCELL_ROW_2_39
*552 TAP_TAPCELL_ROW_3_40
*553 TAP_TAPCELL_ROW_3_41
*554 TAP_TAPCELL_ROW_3_42
*555 TAP_TAPCELL_ROW_3_43
*556 TAP_TAPCELL_ROW_3_44
*557 TAP_TAPCELL_ROW_4_45
*558 TAP_TAPCELL_ROW_4_46
*559 TAP_TAPCELL_ROW_4_47
*560 TAP_TAPCELL_ROW_4_48
*561 TAP_TAPCELL_ROW_4_49
*562 TAP_TAPCELL_ROW_5_50
*563 TAP_TAPCELL_ROW_5_51
*564 TAP_TAPCELL_ROW_5_52
*565 TAP_TAPCELL_ROW_5_53
*566 TAP_TAPCELL_ROW_5_54
*567 TAP_TAPCELL_ROW_6_55
*568 TAP_TAPCELL_ROW_6_56
*569 TAP_TAPCELL_ROW_6_57
*570 TAP_TAPCELL_ROW_6_58
*571 TAP_TAPCELL_ROW_6_59
*572 TAP_TAPCELL_ROW_7_60
*573 TAP_TAPCELL_ROW_7_61
*574 TAP_TAPCELL_ROW_7_62
*575 TAP_TAPCELL_ROW_7_63
*576 TAP_TAPCELL_ROW_7_64
*577 TAP_TAPCELL_ROW_8_65
*578 TAP_TAPCELL_ROW_8_66
*579 TAP_TAPCELL_ROW_8_67
*580 TAP_TAPCELL_ROW_8_68
*581 TAP_TAPCELL_ROW_8_69
*582 TAP_TAPCELL_ROW_9_70
*583 TAP_TAPCELL_ROW_9_71
*584 TAP_TAPCELL_ROW_9_72
*585 TAP_TAPCELL_ROW_9_73
*586 TAP_TAPCELL_ROW_9_74
*587 TAP_TAPCELL_ROW_9_75
*588 TAP_TAPCELL_ROW_9_76
*589 TAP_TAPCELL_ROW_9_77
*590 TAP_TAPCELL_ROW_9_78
*591 TAP_TAPCELL_ROW_9_79
*592 _087_
*593 _088_
*594 _089_
*595 _090_
*596 _091_
*597 _092_
*598 _093_
*599 _094_
*600 _095_
*601 _096_
*602 _097_
*603 _098_
*604 _099_
*605 _100_
*606 _101_
*607 _102_
*608 _103_
*609 _104_
*610 _105_
*611 _106_
*612 _107_
*613 _108_
*614 _109_
*615 _110_
*616 _111_
*617 _112_
*618 _113_
*619 _114_
*620 _115_
*621 _116_
*622 _117_
*623 _118_
*624 _119_
*625 _120_
*626 _121_
*627 _122_
*628 _123_
*629 _124_
*630 _125_
*631 _126_
*632 _127_
*633 _128_
*634 _129_
*635 _130_
*636 _131_
*637 _132_
*638 _133_
*639 _134_
*640 _135_
*641 _136_
*642 _137_
*643 _138_
*644 _139_
*645 _140_
*646 _141_
*647 _142_
*648 _143_
*649 _144_
*650 _145_
*651 _146_
*652 _147_
*653 _148_
*654 _149_
*655 _150_
*656 _151_
*657 _152_
*658 _153_
*659 _154_
*660 _155_
*661 _156_
*662 _157_
*663 _158_
*664 _159_
*665 _160_
*666 _161_
*667 _162_
*668 _163_
*669 _164_
*670 _165_
*671 _166_
*672 _167_
*673 _168_
*674 _169_
*675 _170_
*676 _171_
*677 _172_
*678 _173_
*679 _174_
*680 _175_
*681 _176_
*682 _177_
*683 _178_
*684 _179_
*685 _180_
*686 _181_
*687 _182_
*688 _183_
*689 _184_
*690 _185_
*691 _186_
*692 _187_
*693 _188_
*694 _189_
*695 _190_
*696 _191_
*697 _192_
*698 _193_
*699 _194_
*700 _195_
*701 _196_
*702 _197_
*703 _198_
*704 _199_
*705 _200_
*706 _201_
*707 _202_
*708 _203_
*709 _204_
*710 _205_
*711 _206_
*712 _207_
*713 _208_
*714 _209_
*715 _210_
*716 _211_
*717 _212_
*718 _213_
*719 _214_
*720 _215_
*721 _216_
*722 _217_
*723 _218_
*724 _219_
*725 _220_
*726 _221_
*727 _222_
*728 _223_
*729 _224_
*730 _225_
*731 _226_
*732 _227_
*733 _228_
*734 _229_
*735 _230_
*736 _231_
*737 _232_
*738 _233_
*739 _234_
*740 _235_
*741 _236_
*742 _237_
*743 _238_
*744 _239_
*745 _240_
*746 _241_
*747 _242_
*748 _243_
*749 _244_
*750 _245_
*751 _246_
*752 _247_
*753 _248_
*754 _249_
*755 _250_
*756 _251_
*757 _252_
*758 _253_
*759 _254_
*760 _255_
*761 _256_
*762 _257_
*763 _258_
*764 _259_
*765 _260_
*766 _261_
*767 _262_
*768 _263_
*769 _264_
*770 _265_
*771 _266_
*772 _267_
*773 _268_
*774 _269_
*775 fanout100
*776 fanout101
*777 fanout102
*778 fanout103
*779 fanout104
*780 fanout105
*781 fanout106
*782 fanout107
*783 fanout108
*784 fanout94
*785 fanout95
*786 fanout96
*787 fanout97
*788 fanout98
*789 fanout99
*790 input1
*791 input10
*792 input11
*793 input12
*794 input13
*795 input14
*796 input15
*797 input16
*798 input17
*799 input18
*800 input19
*801 input2
*802 input20
*803 input21
*804 input22
*805 input23
*806 input24
*807 input3
*808 input4
*809 input5
*810 input6
*811 input7
*812 input8
*813 input9
*814 output25
*815 output26
*816 output27
*817 output28
*818 output29
*819 output30
*820 output31
*821 output32
*822 output33
*823 output34
*824 output35
*825 output36
*826 output37
*827 output38
*828 output39
*829 output40
*830 output41
*831 output42
*832 output43
*833 output44
*834 output45
*835 output46
*836 output47
*837 output48
*838 output49
*839 output50
*840 output51
*841 output52
*842 output53
*843 output54
*844 output55
*845 output56
*846 output57
*847 output58
*848 output59
*849 output60
*850 output61
*851 output62
*852 output63
*853 output64
*854 output65
*855 output66
*856 output67
*857 output68
*858 output69
*859 output70
*860 output71
*861 output72
*862 output73
*863 output74
*864 output75
*865 output76
*866 output77
*867 output78
*868 output79
*869 output80
*870 output81
*871 output82
*872 output83
*873 output84
*874 output85
*875 output86
*876 output87
*877 output88
*878 output89
*879 output90
*880 output91
*881 output92
*882 output93

*PORTS
clk I
clk_data O
comp_n I
comp_p I
data[0] O
data[1] O
data[2] O
data[3] O
data[4] O
data[5] O
debug_mux[0] I
debug_mux[1] I
debug_mux[2] I
debug_mux[3] I
debug_out O
en_comp O
en_offset_cal I
en_offset_cal_o O
en_vcm_sw_o O
en_vcm_sw_o_i I
offset_cal_cycle O
rst_z I
sample_o O
start I
vcm_dummy_o O
vcm_o[0] O
vcm_o[10] O
vcm_o[1] O
vcm_o[2] O
vcm_o[3] O
vcm_o[4] O
vcm_o[5] O
vcm_o[6] O
vcm_o[7] O
vcm_o[8] O
vcm_o[9] O
vcm_o_i[0] I
vcm_o_i[10] I
vcm_o_i[1] I
vcm_o_i[2] I
vcm_o_i[3] I
vcm_o_i[4] I
vcm_o_i[5] I
vcm_o_i[6] I
vcm_o_i[7] I
vcm_o_i[8] I
vcm_o_i[9] I
vin_n_sw_on I
vin_p_sw_on I
vref_z_n_o[0] O
vref_z_n_o[10] O
vref_z_n_o[1] O
vref_z_n_o[2] O
vref_z_n_o[3] O
vref_z_n_o[4] O
vref_z_n_o[5] O
vref_z_n_o[6] O
vref_z_n_o[7] O
vref_z_n_o[8] O
vref_z_n_o[9] O
vref_z_p_o[0] O
vref_z_p_o[10] O
vref_z_p_o[1] O
vref_z_p_o[2] O
vref_z_p_o[3] O
vref_z_p_o[4] O
vref_z_p_o[5] O
vref_z_p_o[6] O
vref_z_p_o[7] O
vref_z_p_o[8] O
vref_z_p_o[9] O
vss_n_o[0] O
vss_n_o[10] O
vss_n_o[1] O
vss_n_o[2] O
vss_n_o[3] O
vss_n_o[4] O
vss_n_o[5] O
vss_n_o[6] O
vss_n_o[7] O
vss_n_o[8] O
vss_n_o[9] O
vss_p_o[0] O
vss_p_o[10] O
vss_p_o[1] O
vss_p_o[2] O
vss_p_o[3] O
vss_p_o[4] O
vss_p_o[5] O
vss_p_o[6] O
vss_p_o[7] O
vss_p_o[8] O
vss_p_o[9] O

*D_NET *3 0.00149989
*CONN
*P clk I
*I *790:A I *D sky130_fd_sc_hd__clkbuf_1
*CAP
1 clk 0.000654424
2 *790:A 0
3 *3:11 0.000654424
4 *3:11 *220:20 0.000141954
5 *3:11 *272:29 4.90891e-05
*RES
1 clk *3:11 28.9407 
2 *3:11 *790:A 23 
*END

*D_NET *4 0.0012732
*CONN
*P clk_data O
*I *814:X O *D sky130_fd_sc_hd__clkbuf_4
*CAP
1 clk_data 0.000533423
2 *814:X 1.24964e-05
3 *4:8 0.000545919
4 clk_data *51:15 9.40623e-05
5 clk_data *272:37 0
6 *4:8 *51:15 3.22879e-05
7 *4:8 *64:10 5.50106e-05
*RES
1 *814:X *4:8 38.6214 
2 *4:8 clk_data 11.8693 
*END

*D_NET *5 0.00131734
*CONN
*P comp_n I
*I *801:A I *D sky130_fd_sc_hd__buf_1
*CAP
1 comp_n 0.000658669
2 *801:A 0
3 *5:9 0.000658669
4 *5:9 vcm_o[0] 0
5 *5:9 *6:11 0
6 *5:9 *251:30 0
7 *5:9 *258:24 0
*RES
1 comp_n *5:9 27.8636 
2 *5:9 *801:A 23 
*END

*D_NET *6 0.00150229
*CONN
*P comp_p I
*I *807:A I *D sky130_fd_sc_hd__buf_1
*CAP
1 comp_p 0.000645703
2 *807:A 0
3 *6:11 0.000645703
4 *6:11 en_comp 0
5 *6:11 *681:A 8.29069e-05
6 *6:11 *85:12 7.44354e-05
7 *6:11 *251:30 5.35429e-05
8 *5:9 *6:11 0
*RES
1 comp_p *6:11 28.9614 
2 *6:11 *807:A 23 
*END

*D_NET *7 0.00119973
*CONN
*P data[0] O
*I *815:X O *D sky130_fd_sc_hd__clkbuf_4
*CAP
1 data[0] 2.40452e-05
2 *815:X 0.000575822
3 *7:8 0.000599867
4 *7:8 *263:22 0
*RES
1 *815:X *7:8 49.9418 
2 *7:8 data[0] 0.548929 
*END

*D_NET *8 0.00133676
*CONN
*P data[1] O
*I *816:X O *D sky130_fd_sc_hd__clkbuf_4
*CAP
1 data[1] 0.000594598
2 *816:X 5.48846e-05
3 *8:8 0.000649483
4 *8:8 *222:26 3.77959e-05
*RES
1 *816:X *8:8 39.0979 
2 *8:8 data[1] 12.4907 
*END

*D_NET *9 0.00142783
*CONN
*P data[2] O
*I *817:X O *D sky130_fd_sc_hd__clkbuf_4
*CAP
1 data[2] 0.0005499
2 *817:X 9.21863e-05
3 *9:8 0.000642087
4 data[2] *220:34 0
5 *9:8 *220:28 0.000143655
*RES
1 *817:X *9:8 39.5743 
2 *9:8 data[2] 11.5171 
*END

*D_NET *10 0.00203582
*CONN
*P data[3] O
*I *818:X O *D sky130_fd_sc_hd__clkbuf_4
*CAP
1 data[3] 0.000551982
2 *818:X 0.00026498
3 *10:8 0.000816962
4 data[3] *253:35 0
5 *10:8 *220:28 0.000401899
*RES
1 *818:X *10:8 42.4329 
2 *10:8 data[3] 11.5171 
*END

*D_NET *11 0.00147213
*CONN
*P data[4] O
*I *819:X O *D sky130_fd_sc_hd__clkbuf_4
*CAP
1 data[4] 0.000537581
2 *819:X 9.9598e-05
3 *11:8 0.000637179
4 data[4] *254:39 5.58171e-05
5 *11:8 *220:28 0.000141954
*RES
1 *819:X *11:8 39.5743 
2 *11:8 data[4] 11.5171 
*END

*D_NET *12 0.00147249
*CONN
*P data[5] O
*I *820:X O *D sky130_fd_sc_hd__clkbuf_4
*CAP
1 data[5] 0.000572231
2 *820:X 9.21863e-05
3 *12:8 0.000664417
4 *12:8 *220:28 0.000143655
*RES
1 *820:X *12:8 39.5743 
2 *12:8 data[5] 11.5171 
*END

*D_NET *13 0.0014497
*CONN
*P debug_mux[0] I
*I *808:A I *D sky130_fd_sc_hd__clkbuf_2
*CAP
1 debug_mux[0] 0.000612971
2 *808:A 0
3 *13:9 0.000612971
4 *13:9 *207:6 0.00014196
5 *13:9 *220:20 8.1796e-05
*RES
1 debug_mux[0] *13:9 28.4436 
2 *13:9 *808:A 23 
*END

*D_NET *14 0.00172344
*CONN
*P debug_mux[1] I
*I *809:A I *D sky130_fd_sc_hd__clkbuf_2
*CAP
1 debug_mux[1] 0.000584051
2 *809:A 0
3 *14:9 0.000584051
4 *14:9 *220:8 0.000269781
5 *14:9 *254:49 6.70914e-05
6 *14:9 *261:39 0.000151601
7 *14:9 *263:10 6.6869e-05
*RES
1 debug_mux[1] *14:9 29.8729 
2 *14:9 *809:A 23 
*END

*D_NET *15 0.00145628
*CONN
*P debug_mux[2] I
*I *810:A I *D sky130_fd_sc_hd__buf_1
*CAP
1 debug_mux[2] 0.000616263
2 *810:A 0
3 *15:11 0.000616263
4 *15:11 *50:11 0
5 *15:11 *220:8 0.00014196
6 *15:11 *261:39 8.1796e-05
*RES
1 debug_mux[2] *15:11 28.9407 
2 *15:11 *810:A 23 
*END

*D_NET *16 0.00150761
*CONN
*P debug_mux[3] I
*I *811:A I *D sky130_fd_sc_hd__buf_1
*CAP
1 debug_mux[3] 0.000700793
2 *811:A 0
3 *16:13 0.000700793
4 *16:13 vref_z_n_o[10] 7.20089e-05
5 *16:13 *840:A 3.40195e-05
6 *16:13 *253:43 0
7 *16:13 *261:39 0
*RES
1 debug_mux[3] *16:13 29.5621 
2 *16:13 *811:A 23 
*END

*D_NET *17 0.00171321
*CONN
*P debug_out O
*I *821:X O *D sky130_fd_sc_hd__clkbuf_4
*CAP
1 debug_out 0.000597766
2 *821:X 4.46163e-05
3 *17:8 0.000642382
4 *17:8 *220:28 0.000272383
5 *17:8 *314:20 0.000156058
*RES
1 *821:X *17:8 41.0036 
2 *17:8 debug_out 11.8693 
*END

*D_NET *18 0.00136635
*CONN
*P en_comp O
*I *822:X O *D sky130_fd_sc_hd__buf_2
*CAP
1 en_comp 0.000455178
2 *822:X 0.000163446
3 *18:8 0.000618624
4 en_comp sample_o 0
5 en_comp *681:A 0
6 en_comp *85:12 3.89972e-05
7 *18:8 *85:12 9.01041e-05
8 *6:11 en_comp 0
*RES
1 *822:X *18:8 40.5271 
2 *18:8 en_comp 10.1086 
*END

*D_NET *19 0.00134475
*CONN
*P en_offset_cal I
*I *812:A I *D sky130_fd_sc_hd__buf_1
*CAP
1 en_offset_cal 0.000608311
2 *812:A 0
3 *19:11 0.000608311
4 *19:11 *207:6 3.22879e-05
5 *19:11 *220:20 9.58444e-05
*RES
1 en_offset_cal *19:11 27.9879 
2 *19:11 *812:A 23 
*END

*D_NET *20 0.00140726
*CONN
*P en_offset_cal_o O
*I *823:X O *D sky130_fd_sc_hd__clkbuf_4
*CAP
1 en_offset_cal_o 0.000488042
2 *823:X 0.000215587
3 *20:8 0.000703629
4 en_offset_cal_o offset_cal_cycle 0
*RES
1 *823:X *20:8 41.9564 
2 *20:8 en_offset_cal_o 10.4607 
*END

*D_NET *21 0.00132536
*CONN
*P en_vcm_sw_o O
*I *824:X O *D sky130_fd_sc_hd__buf_2
*CAP
1 en_vcm_sw_o 0.000591699
2 *824:X 0.000591699
3 en_vcm_sw_o vcm_dummy_o 0
4 en_vcm_sw_o *22:11 0.00014196
5 en_vcm_sw_o *74:8 0
*RES
1 *824:X en_vcm_sw_o 49.6829 
*END

*D_NET *22 0.00200809
*CONN
*P en_vcm_sw_o_i I
*I *813:A I *D sky130_fd_sc_hd__clkbuf_1
*CAP
1 en_vcm_sw_o_i 0.000773132
2 *813:A 0
3 *22:11 0.000773132
4 *22:11 offset_cal_cycle 0
5 *22:11 vss_n_o[1] 2.26497e-05
6 *22:11 *74:8 0
7 *22:11 *234:8 0.000297212
8 *22:11 *252:65 0
9 en_vcm_sw_o *22:11 0.00014196
*RES
1 en_vcm_sw_o_i *22:11 31.82 
2 *22:11 *813:A 23 
*END

*D_NET *23 0.00159497
*CONN
*P offset_cal_cycle O
*I *825:X O *D sky130_fd_sc_hd__buf_2
*CAP
1 offset_cal_cycle 0.000558166
2 *825:X 0.000130037
3 *23:8 0.000688202
4 offset_cal_cycle *250:24 3.44448e-05
5 offset_cal_cycle *252:65 8.04817e-05
6 *23:8 *232:18 0.000103637
7 en_offset_cal_o offset_cal_cycle 0
8 *22:11 offset_cal_cycle 0
*RES
1 *825:X *23:8 40.0507 
2 *23:8 offset_cal_cycle 13.5264 
*END

*D_NET *24 0.00186528
*CONN
*P rst_z I
*I *791:A I *D sky130_fd_sc_hd__clkbuf_1
*CAP
1 rst_z 0.000690345
2 *791:A 0
3 *24:11 0.000690345
4 *24:11 *779:A 0.00010018
5 *24:11 *220:20 0.000384414
*RES
1 rst_z *24:11 30.8464 
2 *24:11 *791:A 23 
*END

*D_NET *25 0.00146284
*CONN
*P sample_o O
*I *826:X O *D sky130_fd_sc_hd__clkbuf_4
*CAP
1 sample_o 0.000488042
2 *826:X 0.000222585
3 *25:8 0.000710628
4 sample_o *85:12 0
5 sample_o *87:10 0
6 *25:8 *85:12 2.93845e-05
7 *25:8 *87:10 1.21972e-05
8 *25:8 *89:10 0
9 en_comp sample_o 0
*RES
1 *826:X *25:8 41.9564 
2 *25:8 sample_o 10.4607 
*END

*D_NET *26 0.00131299
*CONN
*P start I
*I *792:A I *D sky130_fd_sc_hd__clkbuf_1
*CAP
1 start 0.000618018
2 *792:A 0
3 *26:11 0.000618018
4 *26:11 *220:20 7.69576e-05
*RES
1 start *26:11 27.9879 
2 *26:11 *792:A 23 
*END

*D_NET *27 0.00128506
*CONN
*P vcm_dummy_o O
*I *827:X O *D sky130_fd_sc_hd__buf_2
*CAP
1 vcm_dummy_o 0.000602093
2 *827:X 0.000602093
3 vcm_dummy_o *794:A 0
4 vcm_dummy_o *234:8 5.12328e-05
5 vcm_dummy_o *264:36 2.96369e-05
6 en_vcm_sw_o vcm_dummy_o 0
*RES
1 *827:X vcm_dummy_o 49.6829 
*END

*D_NET *28 0.00106288
*CONN
*P vcm_o[0] O
*I *828:X O *D sky130_fd_sc_hd__buf_2
*CAP
1 vcm_o[0] 0.000528647
2 *828:X 0.000528647
3 vcm_o[0] *39:15 0
4 vcm_o[0] *216:10 0
5 vcm_o[0] *250:16 0
6 vcm_o[0] *258:24 0
7 vcm_o[0] *262:10 5.58975e-06
8 *5:9 vcm_o[0] 0
*RES
1 *828:X vcm_o[0] 48.875 
*END

*D_NET *29 0.00223809
*CONN
*P vcm_o[10] O
*I *829:X O *D sky130_fd_sc_hd__buf_2
*CAP
1 vcm_o[10] 0.00061249
2 *829:X 9.85258e-05
3 *29:8 0.000711016
4 vcm_o[10] *652:A 9.48381e-06
5 vcm_o[10] *794:A 0
6 vcm_o[10] *49:9 0
7 vcm_o[10] *235:10 2.06041e-05
8 vcm_o[10] *251:12 0
9 vcm_o[10] *282:37 2.96154e-05
10 *29:8 *651:B 5.50106e-05
11 *29:8 *157:162 0.000441076
12 *29:8 *234:8 0.000141052
13 *29:8 *239:8 4.03216e-05
14 *29:8 *282:37 7.88926e-05
*RES
1 *829:X *29:8 42.9093 
2 *29:8 vcm_o[10] 11.5171 
*END

*D_NET *30 0.00141112
*CONN
*P vcm_o[1] O
*I *830:X O *D sky130_fd_sc_hd__buf_2
*CAP
1 vcm_o[1] 0.000526308
2 *830:X 0.000131804
3 *30:8 0.000658112
4 vcm_o[1] *39:15 0
5 vcm_o[1] *41:15 0
6 vcm_o[1] *264:16 0
7 *30:8 *641:B 5.50106e-05
8 *30:8 *157:37 3.98818e-05
*RES
1 *830:X *30:8 40.0507 
2 *30:8 vcm_o[1] 10.1086 
*END

*D_NET *31 0.0014078
*CONN
*P vcm_o[2] O
*I *831:X O *D sky130_fd_sc_hd__buf_2
*CAP
1 vcm_o[2] 0.00063292
2 *831:X 0.00063292
3 vcm_o[2] *41:15 0.00014196
4 vcm_o[2] *42:9 0
5 vcm_o[2] *253:14 0
*RES
1 *831:X vcm_o[2] 49.6829 
*END

*D_NET *32 0.00130214
*CONN
*P vcm_o[3] O
*I *832:X O *D sky130_fd_sc_hd__buf_2
*CAP
1 vcm_o[3] 0.000623676
2 *832:X 0.000623676
3 vcm_o[3] *42:9 0
4 vcm_o[3] *43:9 0
5 vcm_o[3] *252:49 5.47927e-05
*RES
1 *832:X vcm_o[3] 49.6829 
*END

*D_NET *33 0.00112787
*CONN
*P vcm_o[4] O
*I *833:X O *D sky130_fd_sc_hd__buf_2
*CAP
1 vcm_o[4] 0.000563937
2 *833:X 0.000563937
3 vcm_o[4] *798:A 0
4 vcm_o[4] *43:9 0
*RES
1 *833:X vcm_o[4] 49.3514 
*END

*D_NET *34 0.00130729
*CONN
*P vcm_o[5] O
*I *834:X O *D sky130_fd_sc_hd__buf_2
*CAP
1 vcm_o[5] 0.000621298
2 *834:X 0.000621298
3 vcm_o[5] *798:A 0
4 vcm_o[5] *834:A 2.93845e-05
5 vcm_o[5] *45:15 0
6 vcm_o[5] *252:49 3.53115e-05
7 vcm_o[5] *252:55 0
*RES
1 *834:X vcm_o[5] 49.6829 
*END

*D_NET *35 0.00138783
*CONN
*P vcm_o[6] O
*I *835:X O *D sky130_fd_sc_hd__buf_2
*CAP
1 vcm_o[6] 0.000626615
2 *835:X 0.000626615
3 vcm_o[6] *835:A 5.6625e-05
4 vcm_o[6] *45:15 1.11308e-05
5 vcm_o[6] *46:9 0
6 vcm_o[6] *157:100 5.67058e-05
7 vcm_o[6] *193:26 1.01436e-05
*RES
1 *835:X vcm_o[6] 49.6829 
*END

*D_NET *36 0.00146062
*CONN
*P vcm_o[7] O
*I *836:X O *D sky130_fd_sc_hd__buf_2
*CAP
1 vcm_o[7] 0.000594181
2 *836:X 0.000594181
3 vcm_o[7] *46:9 0
4 vcm_o[7] *47:9 0
5 vcm_o[7] *157:100 1.24376e-05
6 vcm_o[7] *157:109 0.000129522
7 vcm_o[7] *258:16 4.75901e-05
8 vcm_o[7] *264:26 8.27131e-05
*RES
1 *836:X vcm_o[7] 49.6829 
*END

*D_NET *37 0.00136897
*CONN
*P vcm_o[8] O
*I *837:X O *D sky130_fd_sc_hd__buf_2
*CAP
1 vcm_o[8] 0.000613505
2 *837:X 0.000613505
3 vcm_o[8] *47:9 0
4 vcm_o[8] *48:9 0
5 vcm_o[8] *157:109 0.00014196
*RES
1 *837:X vcm_o[8] 49.6829 
*END

*D_NET *38 0.00135877
*CONN
*P vcm_o[9] O
*I *838:X O *D sky130_fd_sc_hd__buf_2
*CAP
1 vcm_o[9] 0.000608408
2 *838:X 0.000608408
3 vcm_o[9] *48:9 0
4 vcm_o[9] *49:9 0
5 vcm_o[9] *157:124 1.24376e-05
6 vcm_o[9] *157:137 0.000129522
7 vcm_o[9] *216:18 0
*RES
1 *838:X vcm_o[9] 49.6829 
*END

*D_NET *39 0.00176241
*CONN
*P vcm_o_i[0] I
*I *793:A I *D sky130_fd_sc_hd__clkbuf_1
*CAP
1 vcm_o_i[0] 0.000692423
2 *793:A 0
3 *39:15 0.000692423
4 *39:15 *641:B 8.02699e-05
5 *39:15 *186:28 0.000164111
6 *39:15 *237:8 6.17437e-06
7 *39:15 *250:16 0
8 *39:15 *264:16 0.000127013
9 vcm_o[0] *39:15 0
10 vcm_o[1] *39:15 0
*RES
1 vcm_o_i[0] *39:15 29.9557 
2 *39:15 *793:A 23 
*END

*D_NET *40 0.00137435
*CONN
*P vcm_o_i[10] I
*I *794:A I *D sky130_fd_sc_hd__clkbuf_1
*CAP
1 vcm_o_i[10] 0.000582073
2 *794:A 0.000582073
3 *794:A *251:12 0.000187986
4 *794:A *282:52 2.22183e-05
5 vcm_dummy_o *794:A 0
6 vcm_o[10] *794:A 0
*RES
1 vcm_o_i[10] *794:A 49.9107 
*END

*D_NET *41 0.00256303
*CONN
*P vcm_o_i[1] I
*I *795:A I *D sky130_fd_sc_hd__clkbuf_1
*CAP
1 vcm_o_i[1] 0.000992145
2 *795:A 0
3 *41:15 0.000992145
4 *41:15 *643:A 3.22879e-05
5 *41:15 *717:A1 2.9938e-05
6 *41:15 *717:B1 0.000143655
7 *41:15 *831:A 3.53115e-05
8 *41:15 *157:37 5.94972e-05
9 *41:15 *210:10 9.24795e-06
10 *41:15 *252:49 0.000126847
11 vcm_o[1] *41:15 0
12 vcm_o[2] *41:15 0.00014196
*RES
1 vcm_o_i[1] *41:15 34.4921 
2 *41:15 *795:A 23 
*END

*D_NET *42 0.00141275
*CONN
*P vcm_o_i[2] I
*I *796:A I *D sky130_fd_sc_hd__clkbuf_1
*CAP
1 vcm_o_i[2] 0.000635394
2 *796:A 0
3 *42:9 0.000635394
4 *42:9 *252:49 0.00014196
5 *42:9 *253:14 0
6 vcm_o[2] *42:9 0
7 vcm_o[3] *42:9 0
*RES
1 vcm_o_i[2] *42:9 27.3871 
2 *42:9 *796:A 23 
*END

*D_NET *43 0.00139266
*CONN
*P vcm_o_i[3] I
*I *797:A I *D sky130_fd_sc_hd__clkbuf_1
*CAP
1 vcm_o_i[3] 0.000625353
2 *797:A 0
3 *43:9 0.000625353
4 *43:9 *252:49 0.00014196
5 vcm_o[3] *43:9 0
6 vcm_o[4] *43:9 0
*RES
1 vcm_o_i[3] *43:9 27.3871 
2 *43:9 *797:A 23 
*END

*D_NET *44 0.00121935
*CONN
*P vcm_o_i[4] I
*I *798:A I *D sky130_fd_sc_hd__clkbuf_1
*CAP
1 vcm_o_i[4] 0.000608798
2 *798:A 0.000608798
3 *798:A *243:8 1.74874e-06
4 vcm_o[4] *798:A 0
5 vcm_o[5] *798:A 0
*RES
1 vcm_o_i[4] *798:A 49.4343 
*END

*D_NET *45 0.00284738
*CONN
*P vcm_o_i[5] I
*I *799:A I *D sky130_fd_sc_hd__clkbuf_1
*CAP
1 vcm_o_i[5] 0.00081521
2 *799:A 0
3 *45:15 0.00081521
4 *45:15 *647:B 5.3304e-05
5 *45:15 *722:A2 0.000141954
6 *45:15 *722:B1 1.40183e-05
7 *45:15 *835:A 5.64872e-05
8 *45:15 *157:100 0.000128401
9 *45:15 *192:25 0.00026808
10 *45:15 *193:26 0.000418425
11 *45:15 *252:55 8.62876e-05
12 *45:15 *302:36 3.88766e-05
13 vcm_o[5] *45:15 0
14 vcm_o[6] *45:15 1.11308e-05
*RES
1 vcm_o_i[5] *45:15 35.1964 
2 *45:15 *799:A 23 
*END

*D_NET *46 0.00170757
*CONN
*P vcm_o_i[6] I
*I *800:A I *D sky130_fd_sc_hd__clkbuf_1
*CAP
1 vcm_o_i[6] 0.000641016
2 *800:A 0
3 *46:9 0.000641016
4 *46:9 *157:100 0.000272383
5 *46:9 *193:26 0.000153155
6 *46:9 *258:16 0
7 vcm_o[6] *46:9 0
8 vcm_o[7] *46:9 0
*RES
1 vcm_o_i[6] *46:9 28.8164 
2 *46:9 *800:A 23 
*END

*D_NET *47 0.00140097
*CONN
*P vcm_o_i[7] I
*I *802:A I *D sky130_fd_sc_hd__clkbuf_1
*CAP
1 vcm_o_i[7] 0.000619762
2 *802:A 0
3 *47:9 0.000619762
4 *47:9 *157:109 0.00014196
5 *47:9 *217:8 1.94812e-05
6 vcm_o[7] *47:9 0
7 vcm_o[8] *47:9 0
*RES
1 vcm_o_i[7] *47:9 27.3871 
2 *47:9 *802:A 23 
*END

*D_NET *48 0.00144931
*CONN
*P vcm_o_i[8] I
*I *803:A I *D sky130_fd_sc_hd__clkbuf_1
*CAP
1 vcm_o_i[8] 0.000601871
2 *803:A 0
3 *48:9 0.000601871
4 *48:9 *157:117 1.40183e-05
5 *48:9 *157:124 0.000139357
6 *48:9 *216:18 7.27157e-05
7 *48:9 *218:8 1.94812e-05
8 vcm_o[8] *48:9 0
9 vcm_o[9] *48:9 0
*RES
1 vcm_o_i[8] *48:9 27.3871 
2 *48:9 *803:A 23 
*END

*D_NET *49 0.00135376
*CONN
*P vcm_o_i[9] I
*I *804:A I *D sky130_fd_sc_hd__clkbuf_1
*CAP
1 vcm_o_i[9] 0.000584129
2 *804:A 0
3 *49:9 0.000584129
4 *49:9 *157:137 7.88926e-05
5 *49:9 *282:27 2.77188e-05
6 *49:9 *282:29 7.88926e-05
7 vcm_o[10] *49:9 0
8 vcm_o[9] *49:9 0
*RES
1 vcm_o_i[9] *49:9 27.3871 
2 *49:9 *804:A 23 
*END

*D_NET *50 0.00183175
*CONN
*P vin_n_sw_on I
*I *805:A I *D sky130_fd_sc_hd__buf_1
*CAP
1 vin_n_sw_on 0.000671549
2 *805:A 0
3 *50:11 0.000671549
4 *50:11 vref_z_n_o[10] 0.000365738
5 *50:11 vref_z_n_o[9] 0.000122916
6 *50:11 *253:43 0
7 *50:11 *256:53 0
8 *15:11 *50:11 0
*RES
1 vin_n_sw_on *50:11 28.3558 
2 *50:11 *805:A 23 
*END

*D_NET *51 0.00222069
*CONN
*P vin_p_sw_on I
*I *806:A I *D sky130_fd_sc_hd__clkbuf_1
*CAP
1 vin_p_sw_on 0.000722544
2 *806:A 0
3 *51:15 0.000722544
4 *51:15 vref_z_p_o[10] 0.00022494
5 *51:15 vref_z_p_o[9] 1.05155e-05
6 *51:15 *64:10 0.000167639
7 *51:15 *222:26 0.00024616
8 *51:15 *272:37 0
9 clk_data *51:15 9.40623e-05
10 *4:8 *51:15 3.22879e-05
*RES
1 vin_p_sw_on *51:15 36.0755 
2 *51:15 *806:A 23 
*END

*D_NET *52 0.00114939
*CONN
*P vref_z_n_o[0] O
*I *839:X O *D sky130_fd_sc_hd__buf_2
*CAP
1 vref_z_n_o[0] 0.000188261
2 *839:X 0.000188261