*SPEF "ieee 1481-1999"
*DESIGN "state_machine"
*DATE "18:30:34 Sunday April 07, 2024"
*VENDOR "The OpenROAD Project"
*PROGRAM "OpenROAD"
*VERSION "0889970d1790a2617e69f253221b8bd7626e51dc"
*DESIGN_FLOW "NAME_SCOPE LOCAL" "PIN_CAP NONE"
*DIVIDER /
*DELIMITER :
*BUS_DELIMITER []
*T_UNIT 1 NS
*C_UNIT 1 PF
*R_UNIT 1 OHM
*L_UNIT 1 HENRY

*NAME_MAP
*3 clk
*4 clk_data
*5 comp_n
*6 comp_p
*7 data[0]
*8 data[1]
*9 data[2]
*10 data[3]
*11 data[4]
*12 data[5]
*13 debug_mux[0]
*14 debug_mux[1]
*15 debug_mux[2]
*16 debug_mux[3]
*17 debug_out
*18 en_comp
*19 en_offset_cal
*20 en_offset_cal_o
*21 en_vcm_sw_o
*22 en_vcm_sw_o_i
*23 offset_cal_cycle
*24 rst_z
*25 sample_o
*26 start
*27 vcm_dummy_o
*28 vcm_o[0]
*29 vcm_o[10]
*30 vcm_o[1]
*31 vcm_o[2]
*32 vcm_o[3]
*33 vcm_o[4]
*34 vcm_o[5]
*35 vcm_o[6]
*36 vcm_o[7]
*37 vcm_o[8]
*38 vcm_o[9]
*39 vcm_o_i[0]
*40 vcm_o_i[10]
*41 vcm_o_i[1]
*42 vcm_o_i[2]
*43 vcm_o_i[3]
*44 vcm_o_i[4]
*45 vcm_o_i[5]
*46 vcm_o_i[6]
*47 vcm_o_i[7]
*48 vcm_o_i[8]
*49 vcm_o_i[9]
*50 vin_n_sw_on
*51 vin_p_sw_on
*52 vref_z_n_o[0]
*53 vref_z_n_o[10]
*54 vref_z_n_o[1]
*55 vref_z_n_o[2]
*56 vref_z_n_o[3]
*57 vref_z_n_o[4]
*58 vref_z_n_o[5]
*59 vref_z_n_o[6]
*60 vref_z_n_o[7]
*61 vref_z_n_o[8]
*62 vref_z_n_o[9]
*63 vref_z_p_o[0]
*64 vref_z_p_o[10]
*65 vref_z_p_o[1]
*66 vref_z_p_o[2]
*67 vref_z_p_o[3]
*68 vref_z_p_o[4]
*69 vref_z_p_o[5]
*70 vref_z_p_o[6]
*71 vref_z_p_o[7]
*72 vref_z_p_o[8]
*73 vref_z_p_o[9]
*74 vss_n_o[0]
*75 vss_n_o[10]
*76 vss_n_o[1]
*77 vss_n_o[2]
*78 vss_n_o[3]
*79 vss_n_o[4]
*80 vss_n_o[5]
*81 vss_n_o[6]
*82 vss_n_o[7]
*83 vss_n_o[8]
*84 vss_n_o[9]
*85 vss_p_o[0]
*86 vss_p_o[10]
*87 vss_p_o[1]
*88 vss_p_o[2]
*89 vss_p_o[3]
*90 vss_p_o[4]
*91 vss_p_o[5]
*92 vss_p_o[6]
*93 vss_p_o[7]
*94 vss_p_o[8]
*95 vss_p_o[9]
*96 _000_
*97 _001_
*98 _002_
*99 _003_
*100 _004_
*101 _005_
*102 _006_
*103 _007_
*104 _008_
*105 _009_
*106 _010_
*107 _011_
*108 _012_
*109 _013_
*110 _014_
*111 _015_
*112 _016_
*113 _017_
*114 _018_
*115 _019_
*116 _020_
*117 _021_
*118 _022_
*119 _023_
*120 _024_
*121 _025_
*122 _026_
*123 _027_
*124 _028_
*125 _029_
*126 _030_
*127 _031_
*128 _032_
*129 _033_
*130 _034_
*131 _035_
*132 _036_
*133 _037_
*134 _038_
*135 _039_
*136 _040_
*137 _041_
*138 _042_
*139 _043_
*140 _044_
*141 _045_
*142 _046_
*143 _047_
*144 _048_
*145 _049_
*146 _050_
*147 _051_
*148 _052_
*149 _053_
*150 _054_
*151 _055_
*152 _056_
*153 _057_
*154 _058_
*155 _059_
*156 _060_
*157 _061_
*158 _062_
*159 _063_
*160 _064_
*161 _065_
*162 _066_
*163 _067_
*164 _068_
*165 _069_
*166 _070_
*167 _071_
*168 _072_
*169 _073_
*170 _074_
*171 _075_
*172 _076_
*173 _077_
*174 _078_
*175 _079_
*176 _080_
*177 _081_
*178 _082_
*179 _083_
*180 _084_
*181 _085_
*182 _086_
*183 counter\[0\]
*184 counter\[10\]
*185 counter\[11\]
*186 counter\[1\]
*187 counter\[2\]
*188 counter\[3\]
*189 counter\[4\]
*190 counter\[5\]
*191 counter\[6\]
*192 counter\[7\]
*193 counter\[8\]
*194 counter\[9\]
*195 counter_sample
*196 net1
*197 net10
*198 net100
*199 net101
*200 net102
*201 net103
*202 net104
*203 net105
*204 net106
*205 net107
*206 net108
*207 net11
*208 net12
*209 net13
*210 net14
*211 net15
*212 net16
*213 net17
*214 net18
*215 net19
*216 net2
*217 net20
*218 net21
*219 net22
*220 net23
*221 net24
*222 net25
*223 net26
*224 net27
*225 net28
*226 net29
*227 net3
*228 net30
*229 net31
*230 net32
*231 net33
*232 net34
*233 net35
*234 net36
*235 net37
*236 net38
*237 net39
*238 net4
*239 net40
*240 net41
*241 net42
*242 net43
*243 net44
*244 net45
*245 net46
*246 net47
*247 net48
*248 net49
*249 net5
*250 net50
*251 net51
*252 net52
*253 net53
*254 net54
*255 net55
*256 net56
*257 net57
*258 net58
*259 net59
*260 net6
*261 net60
*262 net61
*263 net62
*264 net63
*265 net64
*266 net65
*267 net66
*268 net67
*269 net68
*270 net69
*271 net7
*272 net70
*273 net71
*274 net72
*275 net73
*276 net74
*277 net75
*278 net76
*279 net77
*280 net78
*281 net79
*282 net8
*283 net80
*284 net81
*285 net82
*286 net83
*287 net84
*288 net85
*289 net86
*290 net87
*291 net88
*292 net89
*293 net9
*294 net90
*295 net91
*296 net92
*297 net93
*298 net94
*299 net95
*300 net96
*301 net97
*302 net98
*303 net99
*304 result\[0\]
*305 result\[10\]
*306 result\[11\]
*307 result\[1\]
*308 result\[2\]
*309 result\[3\]
*310 result\[4\]
*311 result\[5\]
*312 result\[6\]
*313 result\[7\]
*314 result\[8\]
*315 result\[9\]
*316 state\[0\]
*317 state\[1\]
*318 ANTENNA_1
*319 FILLER_0_0_100
*320 FILLER_0_0_109
*321 FILLER_0_0_113
*322 FILLER_0_0_120
*323 FILLER_0_0_129
*324 FILLER_0_0_135
*325 FILLER_0_0_141
*326 FILLER_0_0_150
*327 FILLER_0_0_155
*328 FILLER_0_0_163
*329 FILLER_0_0_167
*330 FILLER_0_0_172
*331 FILLER_0_0_180
*332 FILLER_0_0_189
*333 FILLER_0_0_195
*334 FILLER_0_0_201
*335 FILLER_0_0_205
*336 FILLER_0_0_209
*337 FILLER_0_0_220
*338 FILLER_0_0_225
*339 FILLER_0_0_229
*340 FILLER_0_0_233
*341 FILLER_0_0_237
*342 FILLER_0_0_24
*343 FILLER_0_0_250
*344 FILLER_0_0_253
*345 FILLER_0_0_260
*346 FILLER_0_0_270
*347 FILLER_0_0_281
*348 FILLER_0_0_32
*349 FILLER_0_0_52
*350 FILLER_0_0_61
*351 FILLER_0_0_70
*352 FILLER_0_0_75
*353 FILLER_0_0_83
*354 FILLER_0_0_85
*355 FILLER_0_0_89
*356 FILLER_0_0_95
*357 FILLER_0_1_104
*358 FILLER_0_1_113
*359 FILLER_0_1_124
*360 FILLER_0_1_130
*361 FILLER_0_1_143
*362 FILLER_0_1_192
*363 FILLER_0_1_21
*364 FILLER_0_1_225
*365 FILLER_0_1_257
*366 FILLER_0_1_47
*367 FILLER_0_1_60
*368 FILLER_0_1_96
*369 FILLER_0_2_110
*370 FILLER_0_2_14
*371 FILLER_0_2_146
*372 FILLER_0_2_156
*373 FILLER_0_2_185
*374 FILLER_0_2_217
*375 FILLER_0_2_249
*376 FILLER_0_2_259
*377 FILLER_0_2_26
*378 FILLER_0_2_29
*379 FILLER_0_2_85
*380 FILLER_0_3_100
*381 FILLER_0_3_104
*382 FILLER_0_3_120
*383 FILLER_0_3_155
*384 FILLER_0_3_163
*385 FILLER_0_3_167
*386 FILLER_0_3_190
*387 FILLER_0_3_20
*388 FILLER_0_3_209
*389 FILLER_0_3_225
*390 FILLER_0_3_250
*391 FILLER_0_3_262
*392 FILLER_0_3_28
*393 FILLER_0_3_66
*394 FILLER_0_3_92
*395 FILLER_0_4_125
*396 FILLER_0_4_136
*397 FILLER_0_4_141
*398 FILLER_0_4_149
*399 FILLER_0_4_161
*400 FILLER_0_4_167
*401 FILLER_0_4_17
*402 FILLER_0_4_182
*403 FILLER_0_4_194
*404 FILLER_0_4_205
*405 FILLER_0_4_220
*406 FILLER_0_4_224
*407 FILLER_0_4_239
*408 FILLER_0_4_25
*409 FILLER_0_4_251
*410 FILLER_0_4_253
*411 FILLER_0_4_265
*412 FILLER_0_4_273
*413 FILLER_0_4_29
*414 FILLER_0_4_41
*415 FILLER_0_4_59
*416 FILLER_0_4_68
*417 FILLER_0_4_80
*418 FILLER_0_4_94
*419 FILLER_0_4_98
*420 FILLER_0_5_129
*421 FILLER_0_5_139
*422 FILLER_0_5_143
*423 FILLER_0_5_165
*424 FILLER_0_5_187
*425 FILLER_0_5_20
*426 FILLER_0_5_215
*427 FILLER_0_5_223
*428 FILLER_0_5_225
*429 FILLER_0_5_249
*430 FILLER_0_5_261
*431 FILLER_0_5_28
*432 FILLER_0_5_64
*433 FILLER_0_5_72
*434 FILLER_0_6_11
*435 FILLER_0_6_132
*436 FILLER_0_6_170
*437 FILLER_0_6_174
*438 FILLER_0_6_205
*439 FILLER_0_6_222
*440 FILLER_0_6_23
*441 FILLER_0_6_246
*442 FILLER_0_6_253
*443 FILLER_0_6_265
*444 FILLER_0_6_27
*445 FILLER_0_6_277
*446 FILLER_0_6_29
*447 FILLER_0_6_94
*448 FILLER_0_7_107
*449 FILLER_0_7_11
*450 FILLER_0_7_133
*451 FILLER_0_7_176
*452 FILLER_0_7_209
*453 FILLER_0_7_223
*454 FILLER_0_7_23
*455 FILLER_0_7_252
*456 FILLER_0_7_264
*457 FILLER_0_7_281
*458 FILLER_0_7_57
*459 FILLER_0_7_67
*460 FILLER_0_8_100
*461 FILLER_0_8_124
*462 FILLER_0_8_131
*463 FILLER_0_8_135
*464 FILLER_0_8_141
*465 FILLER_0_8_15
*466 FILLER_0_8_168
*467 FILLER_0_8_172
*468 FILLER_0_8_180
*469 FILLER_0_8_188
*470 FILLER_0_8_194
*471 FILLER_0_8_219
*472 FILLER_0_8_227
*473 FILLER_0_8_243
*474 FILLER_0_8_251
*475 FILLER_0_8_253
*476 FILLER_0_8_265
*477 FILLER_0_8_27
*478 FILLER_0_8_273
*479 FILLER_0_8_62
*480 FILLER_0_8_74
*481 FILLER_0_8_81
*482 FILLER_0_8_95
*483 FILLER_0_9_104
*484 FILLER_0_9_116
*485 FILLER_0_9_123
*486 FILLER_0_9_135
*487 FILLER_0_9_139
*488 FILLER_0_9_152
*489 FILLER_0_9_162
*490 FILLER_0_9_169
*491 FILLER_0_9_173
*492 FILLER_0_9_177
*493 FILLER_0_9_189
*494 FILLER_0_9_197
*495 FILLER_0_9_20
*496 FILLER_0_9_211
*497 FILLER_0_9_215
*498 FILLER_0_9_223
*499 FILLER_0_9_225
*500 FILLER_0_9_235
*501 FILLER_0_9_247
*502 FILLER_0_9_251
*503 FILLER_0_9_257
*504 FILLER_0_9_272
*505 FILLER_0_9_29
*506 FILLER_0_9_50
*507 FILLER_0_9_57
*508 FILLER_0_9_66
*509 FILLER_0_9_78
*510 FILLER_0_9_91
*511 FILLER_0_9_97
*512 PHY_EDGE_ROW_0_Left_10
*513 PHY_EDGE_ROW_0_Right_0
*514 PHY_EDGE_ROW_1_Left_11
*515 PHY_EDGE_ROW_1_Right_1
*516 PHY_EDGE_ROW_2_Left_12
*517 PHY_EDGE_ROW_2_Right_2
*518 PHY_EDGE_ROW_3_Left_13
*519 PHY_EDGE_ROW_3_Right_3
*520 PHY_EDGE_ROW_4_Left_14
*521 PHY_EDGE_ROW_4_Right_4
*522 PHY_EDGE_ROW_5_Left_15
*523 PHY_EDGE_ROW_5_Right_5
*524 PHY_EDGE_ROW_6_Left_16
*525 PHY_EDGE_ROW_6_Right_6
*526 PHY_EDGE_ROW_7_Left_17
*527 PHY_EDGE_ROW_7_Right_7
*528 PHY_EDGE_ROW_8_Left_18
*529 PHY_EDGE_ROW_8_Right_8
*530 PHY_EDGE_ROW_9_Left_19
*531 PHY_EDGE_ROW_9_Right_9
*532 TAP_TAPCELL_ROW_0_20
*533 TAP_TAPCELL_ROW_0_21
*534 TAP_TAPCELL_ROW_0_22
*535 TAP_TAPCELL_ROW_0_23
*536 TAP_TAPCELL_ROW_0_24
*537 TAP_TAPCELL_ROW_0_25
*538 TAP_TAPCELL_ROW_0_26
*539 TAP_TAPCELL_ROW_0_27
*540 TAP_TAPCELL_ROW_0_28
*541 TAP_TAPCELL_ROW_0_29
*542 TAP_TAPCELL_ROW_1_30
*543 TAP_TAPCELL_ROW_1_31
*544 TAP_TAPCELL_ROW_1_32
*545 TAP_TAPCELL_ROW_1_33
*546 TAP_TAPCELL_ROW_1_34
*547 TAP_TAPCELL_ROW_2_35
*548 TAP_TAPCELL_ROW_2_36
*549 TAP_TAPCELL_ROW_2_37
*550 TAP_TAPCELL_ROW_2_38
*551 TAP_TAPCELL_ROW_2_39
*552 TAP_TAPCELL_ROW_3_40
*553 TAP_TAPCELL_ROW_3_41
*554 TAP_TAPCELL_ROW_3_42
*555 TAP_TAPCELL_ROW_3_43
*556 TAP_TAPCELL_ROW_3_44
*557 TAP_TAPCELL_ROW_4_45
*558 TAP_TAPCELL_ROW_4_46
*559 TAP_TAPCELL_ROW_4_47
*560 TAP_TAPCELL_ROW_4_48
*561 TAP_TAPCELL_ROW_4_49
*562 TAP_TAPCELL_ROW_5_50
*563 TAP_TAPCELL_ROW_5_51
*564 TAP_TAPCELL_ROW_5_52
*565 TAP_TAPCELL_ROW_5_53
*566 TAP_TAPCELL_ROW_5_54
*567 TAP_TAPCELL_ROW_6_55
*568 TAP_TAPCELL_ROW_6_56
*569 TAP_TAPCELL_ROW_6_57
*570 TAP_TAPCELL_ROW_6_58
*571 TAP_TAPCELL_ROW_6_59
*572 TAP_TAPCELL_ROW_7_60
*573 TAP_TAPCELL_ROW_7_61
*574 TAP_TAPCELL_ROW_7_62
*575 TAP_TAPCELL_ROW_7_63
*576 TAP_TAPCELL_ROW_7_64
*577 TAP_TAPCELL_ROW_8_65
*578 TAP_TAPCELL_ROW_8_66
*579 TAP_TAPCELL_ROW_8_67
*580 TAP_TAPCELL_ROW_8_68
*581 TAP_TAPCELL_ROW_8_69
*582 TAP_TAPCELL_ROW_9_70
*583 TAP_TAPCELL_ROW_9_71
*584 TAP_TAPCELL_ROW_9_72
*585 TAP_TAPCELL_ROW_9_73
*586 TAP_TAPCELL_ROW_9_74
*587 TAP_TAPCELL_ROW_9_75
*588 TAP_TAPCELL_ROW_9_76
*589 TAP_TAPCELL_ROW_9_77
*590 TAP_TAPCELL_ROW_9_78
*591 TAP_TAPCELL_ROW_9_79
*592 _087_
*593 _088_
*594 _089_
*595 _090_
*596 _091_
*597 _092_
*598 _093_
*599 _094_
*600 _095_
*601 _096_
*602 _097_
*603 _098_
*604 _099_
*605 _100_
*606 _101_
*607 _102_
*608 _103_
*609 _104_
*610 _105_
*611 _106_
*612 _107_
*613 _108_
*614 _109_
*615 _110_
*616 _111_
*617 _112_
*618 _113_
*619 _114_
*620 _115_
*621 _116_
*622 _117_
*623 _118_
*624 _119_
*625 _120_
*626 _121_
*627 _122_
*628 _123_
*629 _124_
*630 _125_
*631 _126_
*632 _127_
*633 _128_
*634 _129_
*635 _130_
*636 _131_
*637 _132_
*638 _133_
*639 _134_
*640 _135_
*641 _136_
*642 _137_
*643 _138_
*644 _139_
*645 _140_
*646 _141_
*647 _142_
*648 _143_
*649 _144_
*650 _145_
*651 _146_
*652 _147_
*653 _148_
*654 _149_
*655 _150_
*656 _151_
*657 _152_
*658 _153_
*659 _154_
*660 _155_
*661 _156_
*662 _157_
*663 _158_
*664 _159_
*665 _160_
*666 _161_
*667 _162_
*668 _163_
*669 _164_
*670 _165_
*671 _166_
*672 _167_
*673 _168_
*674 _169_
*675 _170_
*676 _171_
*677 _172_
*678 _173_
*679 _174_
*680 _175_
*681 _176_
*682 _177_
*683 _178_
*684 _179_
*685 _180_
*686 _181_
*687 _182_
*688 _183_
*689 _184_
*690 _185_
*691 _186_
*692 _187_
*693 _188_
*694 _189_
*695 _190_
*696 _191_
*697 _192_
*698 _193_
*699 _194_
*700 _195_
*701 _196_
*702 _197_
*703 _198_
*704 _199_
*705 _200_
*706 _201_
*707 _202_
*708 _203_
*709 _204_
*710 _205_
*711 _206_
*712 _207_
*713 _208_
*714 _209_
*715 _210_
*716 _211_
*717 _212_
*718 _213_
*719 _214_
*720 _215_
*721 _216_
*722 _217_
*723 _218_
*724 _219_
*725 _220_
*726 _221_
*727 _222_
*728 _223_
*729 _224_
*730 _225_
*731 _226_
*732 _227_
*733 _228_
*734 _229_
*735 _230_
*736 _231_
*737 _232_
*738 _233_
*739 _234_
*740 _235_
*741 _236_
*742 _237_
*743 _238_
*744 _239_
*745 _240_
*746 _241_
*747 _242_
*748 _243_
*749 _244_
*750 _245_
*751 _246_
*752 _247_
*753 _248_
*754 _249_
*755 _250_
*756 _251_
*757 _252_
*758 _253_
*759 _254_
*760 _255_
*761 _256_
*762 _257_
*763 _258_
*764 _259_
*765 _260_
*766 _261_
*767 _262_
*768 _263_
*769 _264_
*770 _265_
*771 _266_
*772 _267_
*773 _268_
*774 _269_
*775 fanout100
*776 fanout101
*777 fanout102
*778 fanout103
*779 fanout104
*780 fanout105
*781 fanout106
*782 fanout107
*783 fanout108
*784 fanout94
*785 fanout95
*786 fanout96
*787 fanout97
*788 fanout98
*789 fanout99
*790 input1
*791 input10
*792 input11
*793 input12
*794 input13
*795 input14
*796 input15
*797 input16
*798 input17
*799 input18
*800 input19
*801 input2
*802 input20
*803 input21
*804 input22
*805 input23
*806 input24
*807 input3
*808 input4
*809 input5
*810 input6
*811 input7
*812 input8
*813 input9
*814 output25
*815 output26
*816 output27
*817 output28
*818 output29
*819 output30
*820 output31
*821 output32
*822 output33
*823 output34
*824 output35
*825 output36
*826 output37
*827 output38
*828 output39
*829 output40
*830 output41
*831 output42
*832 output43
*833 output44
*834 output45
*835 output46
*836 output47
*837 output48
*838 output49
*839 output50
*840 output51
*841 output52
*842 output53
*843 output54
*844 output55
*845 output56
*846 output57
*847 output58
*848 output59
*849 output60
*850 output61
*851 output62
*852 output63
*853 output64
*854 output65
*855 output66
*856 output67
*857 output68
*858 output69
*859 output70
*860 output71
*861 output72
*862 output73
*863 output74
*864 output75
*865 output76
*866 output77
*867 output78
*868 output79
*869 output80
*870 output81
*871 output82
*872 output83
*873 output84
*874 output85
*875 output86
*876 output87
*877 output88
*878 output89
*879 output90
*880 output91
*881 output92
*882 output93

*PORTS
clk I
clk_data O
comp_n I
comp_p I
data[0] O
data[1] O
data[2] O
data[3] O
data[4] O
data[5] O
debug_mux[0] I
debug_mux[1] I
debug_mux[2] I
debug_mux[3] I
debug_out O
en_comp O
en_offset_cal I
en_offset_cal_o O
en_vcm_sw_o O
en_vcm_sw_o_i I
offset_cal_cycle O
rst_z I
sample_o O
start I
vcm_dummy_o O
vcm_o[0] O
vcm_o[10] O
vcm_o[1] O
vcm_o[2] O
vcm_o[3] O
vcm_o[4] O
vcm_o[5] O
vcm_o[6] O
vcm_o[7] O
vcm_o[8] O
vcm_o[9] O
vcm_o_i[0] I
vcm_o_i[10] I
vcm_o_i[1] I
vcm_o_i[2] I
vcm_o_i[3] I
vcm_o_i[4] I
vcm_o_i[5] I
vcm_o_i[6] I
vcm_o_i[7] I
vcm_o_i[8] I
vcm_o_i[9] I
vin_n_sw_on I
vin_p_sw_on I
vref_z_n_o[0] O
vref_z_n_o[10] O
vref_z_n_o[1] O
vref_z_n_o[2] O
vref_z_n_o[3] O
vref_z_n_o[4] O
vref_z_n_o[5] O
vref_z_n_o[6] O
vref_z_n_o[7] O
vref_z_n_o[8] O
vref_z_n_o[9] O
vref_z_p_o[0] O
vref_z_p_o[10] O
vref_z_p_o[1] O
vref_z_p_o[2] O
vref_z_p_o[3] O
vref_z_p_o[4] O
vref_z_p_o[5] O
vref_z_p_o[6] O
vref_z_p_o[7] O
vref_z_p_o[8] O
vref_z_p_o[9] O
vss_n_o[0] O
vss_n_o[10] O
vss_n_o[1] O
vss_n_o[2] O
vss_n_o[3] O
vss_n_o[4] O
vss_n_o[5] O
vss_n_o[6] O
vss_n_o[7] O
vss_n_o[8] O
vss_n_o[9] O
vss_p_o[0] O
vss_p_o[10] O
vss_p_o[1] O
vss_p_o[2] O
vss_p_o[3] O
vss_p_o[4] O
vss_p_o[5] O
vss_p_o[6] O
vss_p_o[7] O
vss_p_o[8] O
vss_p_o[9] O

*D_NET *3 0.00128609
*CONN
*P clk I
*I *790:A I *D sky130_fd_sc_hd__clkbuf_1
*CAP
1 clk 0.000554949
2 *790:A 0.000554949
3 *790:A *220:20 0.000124895
4 *790:A *272:29 5.12942e-05
*RES
1 clk *790:A 13.695 
*END

*D_NET *4 0.00111253
*CONN
*P clk_data O
*I *814:X O *D sky130_fd_sc_hd__clkbuf_4
*CAP
1 clk_data 0.000472401
2 *814:X 0.000472401
3 clk_data vref_z_p_o[10] 4.82919e-05
4 clk_data *806:A 0.000119433
5 clk_data *859:A 0
*RES
1 *814:X clk_data 12.645 
*END

*D_NET *5 0.00112869
*CONN
*P comp_n I
*I *801:A I *D sky130_fd_sc_hd__buf_1
*CAP
1 comp_n 0.000564344
2 *801:A 0.000564344
3 *801:A vcm_o[0] 0
4 *801:A *691:A 0
5 *801:A *807:A 0
6 *801:A *251:22 0
*RES
1 comp_n *801:A 12.915 
*END

*D_NET *6 0.00130584
*CONN
*P comp_p I
*I *807:A I *D sky130_fd_sc_hd__buf_1
*CAP
1 comp_p 0.000554083
2 *807:A 0.000554083
3 *807:A en_comp 0
4 *807:A vss_p_o[0] 6.97202e-05
5 *807:A *681:A 7.73072e-05
6 *807:A *251:22 5.0651e-05
7 *801:A *807:A 0
*RES
1 comp_p *807:A 13.71 
*END

*D_NET *7 0.00104677
*CONN
*P data[0] O
*I *815:X O *D sky130_fd_sc_hd__clkbuf_4
*CAP
1 data[0] 0.000523385
2 *815:X 0.000523385
3 data[0] *851:A 0
*RES
1 *815:X data[0] 12.645 
*END

*D_NET *8 0.00116576
*CONN
*P data[1] O
*I *816:X O *D sky130_fd_sc_hd__clkbuf_4
*CAP
1 data[1] 0.000565015
2 *816:X 0.000565015
3 data[1] *814:A 3.57254e-05
*RES
1 *816:X data[1] 13.44 
*END

*D_NET *9 0.00124465
*CONN
*P data[2] O
*I *817:X O *D sky130_fd_sc_hd__clkbuf_4
*CAP
1 data[2] 0.00055904
2 *817:X 0.00055904
3 data[2] *639:A 0.00012657
*RES
1 *817:X data[2] 13.08 
*END

*D_NET *10 0.00176651
*CONN
*P data[3] O
*I *818:X O *D sky130_fd_sc_hd__clkbuf_4
*CAP
1 data[3] 0.000706339
2 *818:X 0.000706339
3 data[3] *639:A 0.000353831
4 data[3] *253:35 0
*RES
1 *818:X data[3] 15.15 
*END

*D_NET *11 0.00126769
*CONN
*P data[4] O
*I *819:X O *D sky130_fd_sc_hd__clkbuf_4
*CAP
1 data[4] 0.000542142
2 *819:X 0.000542142
3 data[4] *639:A 0.000124895
4 data[4] *254:41 5.85158e-05
*RES
1 *819:X data[4] 13.08 
*END

*D_NET *12 0.00126485
*CONN
*P data[5] O
*I *820:X O *D sky130_fd_sc_hd__clkbuf_4
*CAP
1 data[5] 0.000569141
2 *820:X 0.000569141
3 data[5] *639:A 0.00012657
*RES
1 *820:X data[5] 13.08 
*END

*D_NET *13 0.00124849
*CONN
*P debug_mux[0] I
*I *808:A I *D sky130_fd_sc_hd__clkbuf_2
*CAP
1 debug_mux[0] 0.000523745
2 *808:A 0.000523745
3 *808:A *620:A1 0.0001249
4 *808:A *220:20 7.60965e-05
*RES
1 debug_mux[0] *808:A 13.335 
*END

*D_NET *14 0.00148987
*CONN
*P debug_mux[1] I
*I *809:A I *D sky130_fd_sc_hd__clkbuf_2
*CAP
1 debug_mux[1] 0.000489434
2 *809:A 0.000489434
3 *809:A *843:A 6.95505e-05
4 *809:A *849:A 0.000141323
5 *809:A *220:20 0.000237249
6 *809:A *263:10 6.28765e-05
*RES
1 debug_mux[1] *809:A 14.37 
*END

*D_NET *15 0.00127184
*CONN
*P debug_mux[2] I
*I *810:A I *D sky130_fd_sc_hd__buf_1
*CAP
1 debug_mux[2] 0.000535422
2 *810:A 0.000535422
3 *810:A *805:A 0
4 *810:A *849:A 7.60965e-05
5 *810:A *220:20 0.0001249
*RES
1 debug_mux[2] *810:A 13.695 
*END

*D_NET *16 0.00131146
*CONN
*P debug_mux[3] I
*I *811:A I *D sky130_fd_sc_hd__buf_1
*CAP
1 debug_mux[3] 0.000610328
2 *811:A 0.000610328
3 *811:A vref_z_n_o[10] 6.06593e-05
4 *811:A *840:A 3.01435e-05
5 *811:A *842:A 0
6 *811:A *849:A 0
*RES
1 debug_mux[3] *811:A 14.145 
*END

*D_NET *17 0.00147387
*CONN
*P debug_out O
*I *821:X O *D sky130_fd_sc_hd__clkbuf_4
*CAP
1 debug_out 0.000544439
2 *821:X 0.000544439
3 debug_out *631:A1 0.000145184
4 debug_out *639:A 0.000239813
*RES
1 *821:X debug_out 14.37 
*END

*D_NET *18 0.0011989
*CONN
*P en_comp O
*I *822:X O *D sky130_fd_sc_hd__buf_2
*CAP
1 en_comp 0.000537615
2 *822:X 0.000537615
3 en_comp sample_o 0
4 en_comp vss_p_o[0] 0.000123674
5 en_comp *681:A 0
6 *807:A en_comp 0
*RES
1 *822:X en_comp 12.75 
*END

*D_NET *19 0.00115899
*CONN
*P en_offset_cal I
*I *812:A I *D sky130_fd_sc_hd__buf_1
*CAP
1 en_offset_cal 0.00052315
2 *812:A 0.00052315
3 *812:A *620:A1 3.00381e-05
4 *812:A *220:20 8.26509e-05
*RES
1 en_offset_cal *812:A 13.005 
*END

*D_NET *20 0.00124321
*CONN
*P en_offset_cal_o O
*I *823:X O *D sky130_fd_sc_hd__clkbuf_4
*CAP
1 en_offset_cal_o 0.000621606
2 *823:X 0.000621606
3 en_offset_cal_o offset_cal_cycle 0
*RES
1 *823:X en_offset_cal_o 14.04 
*END

*D_NET *21 0.00114103
*CONN
*P en_vcm_sw_o O
*I *824:X O *D sky130_fd_sc_hd__buf_2
*CAP
1 en_vcm_sw_o 0.000508066
2 *824:X 0.000508066
3 en_vcm_sw_o vcm_dummy_o 0
4 en_vcm_sw_o vss_n_o[0] 0
5 en_vcm_sw_o *813:A 0.0001249
*RES
1 *824:X en_vcm_sw_o 12.06 
*END

*D_NET *22 0.00173271
*CONN
*P en_vcm_sw_o_i I
*I *813:A I *D sky130_fd_sc_hd__clkbuf_1
*CAP
1 en_vcm_sw_o_i 0.000655987
2 *813:A 0.000655987
3 *813:A offset_cal_cycle 0
4 *813:A vss_n_o[0] 0
5 *813:A vss_n_o[1] 1.88656e-05
6 *813:A *825:A 0.000276975
7 *813:A *841:A 0
8 en_vcm_sw_o *813:A 0.0001249
*RES
1 en_vcm_sw_o_i *813:A 15.78 
*END

*D_NET *23 0.00137692
*CONN
*P offset_cal_cycle O
*I *825:X O *D sky130_fd_sc_hd__buf_2
*CAP
1 offset_cal_cycle 0.000589518
2 *825:X 0.000589518
3 offset_cal_cycle *823:A 9.66021e-05
4 offset_cal_cycle *839:A 3.29364e-05
5 offset_cal_cycle *841:A 6.83447e-05
6 en_offset_cal_o offset_cal_cycle 0
7 *813:A offset_cal_cycle 0
*RES
1 *825:X offset_cal_cycle 14.88 
*END

*D_NET *24 0.00161227
*CONN
*P rst_z I
*I *791:A I *D sky130_fd_sc_hd__clkbuf_1
*CAP
1 rst_z 0.000594188
2 *791:A 0.000594188
3 *791:A *779:A 8.8266e-05
4 *791:A *220:20 0.00033563
*RES
1 rst_z *791:A 15.075 
*END

*D_NET *25 0.00127415
*CONN
*P sample_o O
*I *826:X O *D sky130_fd_sc_hd__clkbuf_4
*CAP
1 sample_o 0.000617317
2 *826:X 0.000617317
3 sample_o vss_p_o[0] 2.75229e-05
4 sample_o vss_p_o[1] 1.19928e-05
5 sample_o vss_p_o[3] 0
6 en_comp sample_o 0
*RES
1 *826:X sample_o 14.04 
*END

*D_NET *26 0.00113647
*CONN
*P start I
*I *792:A I *D sky130_fd_sc_hd__clkbuf_1
*CAP
1 start 0.000533969
2 *792:A 0.000533969
3 *792:A *220:20 6.85293e-05
*RES
1 start *792:A 13.005 
*END

*D_NET *27 0.00109433
*CONN
*P vcm_dummy_o O
*I *827:X O *D sky130_fd_sc_hd__buf_2
*CAP
1 vcm_dummy_o 0.000507246
2 *827:X 0.000507246
3 vcm_dummy_o *657:A 3.18219e-05
4 vcm_dummy_o *794:A 0
5 vcm_dummy_o *825:A 4.80182e-05
6 en_vcm_sw_o vcm_dummy_o 0
*RES
1 *827:X vcm_dummy_o 12.06 
*END

*D_NET *28 0.000916138
*CONN
*P vcm_o[0] O
*I *828:X O *D sky130_fd_sc_hd__buf_2
*CAP
1 vcm_o[0] 0.000455478
2 *828:X 0.000455478
3 vcm_o[0] *616:A2 0
4 vcm_o[0] *691:A 0
5 vcm_o[0] *793:A 0
6 vcm_o[0] *250:16 0
7 vcm_o[0] *262:10 5.18317e-06
8 *801:A vcm_o[0] 0
*RES
1 *828:X vcm_o[0] 11.475 
*END

*D_NET *29 0.00187888
*CONN
*P vcm_o[10] O
*I *829:X O *D sky130_fd_sc_hd__buf_2
*CAP
1 vcm_o[10] 0.000573991
2 *829:X 0.000573991
3 vcm_o[10] *640:A 0.000387902
4 vcm_o[10] *651:B 4.82919e-05
5 vcm_o[10] *652:A 1.0183e-05
6 vcm_o[10] *652:B 0.000101462
7 vcm_o[10] *794:A 0
8 vcm_o[10] *804:A 0
9 vcm_o[10] *825:A 0.000124007
10 vcm_o[10] *826:A 2.18126e-05
11 vcm_o[10] *829:A 3.72413e-05
12 vcm_o[10] *251:12 0
*RES
1 *829:X vcm_o[10] 15.495 
*END

*D_NET *30 0.00119475
*CONN
*P vcm_o[1] O
*I *830:X O *D sky130_fd_sc_hd__buf_2
*CAP
1 vcm_o[1] 0.000553234
2 *830:X 0.000553234
3 vcm_o[1] *641:B 4.82919e-05
4 vcm_o[1] *793:A 0
5 vcm_o[1] *795:A 0
6 vcm_o[1] *157:37 3.99879e-05
7 vcm_o[1] *264:16 0
*RES
1 *830:X vcm_o[1] 12.405 
*END

*D_NET *31 0.00118359
*CONN
*P vcm_o[2] O
*I *831:X O *D sky130_fd_sc_hd__buf_2
*CAP
1 vcm_o[2] 0.000529345
2 *831:X 0.000529345
3 vcm_o[2] *681:A 0
4 vcm_o[2] *795:A 0.0001249
5 vcm_o[2] *796:A 0
*RES
1 *831:X vcm_o[2] 12.06 
*END

*D_NET *32 0.00110335
*CONN
*P vcm_o[3] O
*I *832:X O *D sky130_fd_sc_hd__buf_2
*CAP
1 vcm_o[3] 0.000526299
2 *832:X 0.000526299
3 vcm_o[3] *796:A 0
4 vcm_o[3] *797:A 0
5 vcm_o[3] *252:55 5.0751e-05
*RES
1 *832:X vcm_o[3] 12.06 
*END

*D_NET *33 0.000963605
*CONN
*P vcm_o[4] O
*I *833:X O *D sky130_fd_sc_hd__buf_2
*CAP
1 vcm_o[4] 0.000481803
2 *833:X 0.000481803
3 vcm_o[4] *797:A 0
4 vcm_o[4] *798:A 0
*RES
1 *833:X vcm_o[4] 11.82 
*END

*D_NET *34 0.00110918
*CONN
*P vcm_o[5] O
*I *834:X O *D sky130_fd_sc_hd__buf_2
*CAP
1 vcm_o[5] 0.000524647
2 *834:X 0.000524647
3 vcm_o[5] *798:A 0
4 vcm_o[5] *799:A 0
5 vcm_o[5] *834:A 2.75229e-05
6 vcm_o[5] *252:55 3.23663e-05
*RES
1 *834:X vcm_o[5] 12.06 
*END

*D_NET *35 0.00116747
*CONN
*P vcm_o[6] O
*I *835:X O *D sky130_fd_sc_hd__buf_2
*CAP
1 vcm_o[6] 0.000524491
2 *835:X 0.000524491
3 vcm_o[6] *722:A1 8.53113e-06
4 vcm_o[6] *799:A 1.02024e-05
5 vcm_o[6] *800:A 0
6 vcm_o[6] *835:A 4.97938e-05
7 vcm_o[6] *157:100 4.99619e-05
*RES
1 *835:X vcm_o[6] 12.06 
*END

*D_NET *36 0.00123138
*CONN
*P vcm_o[7] O
*I *836:X O *D sky130_fd_sc_hd__buf_2
*CAP
1 vcm_o[7] 0.000495687
2 *836:X 0.000495687
3 vcm_o[7] *800:A 0
4 vcm_o[7] *802:A 0
5 vcm_o[7] *157:100 1.08758e-05
6 vcm_o[7] *157:109 0.000114024
7 vcm_o[7] *258:16 4.50944e-05
8 vcm_o[7] *264:26 7.00115e-05
*RES
1 *836:X vcm_o[7] 12.06 
*END

*D_NET *37 0.00116341
*CONN
*P vcm_o[8] O
*I *837:X O *D sky130_fd_sc_hd__buf_2
*CAP
1 vcm_o[8] 0.000519254
2 *837:X 0.000519254
3 vcm_o[8] *802:A 0
4 vcm_o[8] *803:A 0
5 vcm_o[8] *157:109 0.0001249
*RES
1 *837:X vcm_o[8] 12.06 
*END

*D_NET *38 0.00115747
*CONN
*P vcm_o[9] O
*I *838:X O *D sky130_fd_sc_hd__buf_2
*CAP
1 vcm_o[9] 0.000516286
2 *838:X 0.000516286
3 vcm_o[9] *616:A2 0
4 vcm_o[9] *803:A 0
5 vcm_o[9] *804:A 0
6 vcm_o[9] *157:124 1.08758e-05
7 vcm_o[9] *157:137 0.000114024
*RES
1 *838:X vcm_o[9] 12.06 
*END

*D_NET *39 0.00148141
*CONN
*P vcm_o_i[0] I
*I *793:A I *D sky130_fd_sc_hd__clkbuf_1
*CAP
1 vcm_o_i[0] 0.000566123
2 *793:A 0.000566123
3 *793:A *641:B 7.54462e-05
4 *793:A *828:A 5.83121e-06
5 *793:A *186:28 0.000145366
6 *793:A *250:16 0
7 *793:A *264:16 0.000122526
8 vcm_o[0] *793:A 0
9 vcm_o[1] *793:A 0
*RES
1 vcm_o_i[0] *793:A 14.43 
*END

*D_NET *40 0.00117977
*CONN
*P vcm_o_i[10] I
*I *794:A I *D sky130_fd_sc_hd__clkbuf_1
*CAP
1 vcm_o_i[10] 0.000499868
2 *794:A 0.000499868
3 *794:A *653:A 2.24423e-05
4 *794:A *251:12 0.000157595
5 vcm_dummy_o *794:A 0
6 vcm_o[10] *794:A 0
*RES
1 vcm_o_i[10] *794:A 12.225 
*END

*D_NET *41 0.00219324
*CONN
*P vcm_o_i[1] I
*I *795:A I *D sky130_fd_sc_hd__clkbuf_1
*CAP
1 vcm_o_i[1] 0.000834026
2 *795:A 0.000834026
3 *795:A *643:A 3.00381e-05
4 *795:A *717:A1 2.7441e-05
5 *795:A *717:B1 0.00012657
6 *795:A *831:A 3.23663e-05
7 *795:A *157:37 5.63051e-05
8 *795:A *210:10 9.27255e-06
9 *795:A *252:55 0.000118294
10 vcm_o[1] *795:A 0
11 vcm_o[2] *795:A 0.0001249
*RES
1 vcm_o_i[1] *795:A 17.715 
*END

*D_NET *42 0.00119126
*CONN
*P vcm_o_i[2] I
*I *796:A I *D sky130_fd_sc_hd__clkbuf_1
*CAP
1 vcm_o_i[2] 0.00053318
2 *796:A 0.00053318
3 *796:A *681:A 0
4 *796:A *252:55 0.0001249
5 vcm_o[2] *796:A 0
6 vcm_o[3] *796:A 0
*RES
1 vcm_o_i[2] *796:A 12.57 
*END

*D_NET *43 0.0011748
*CONN
*P vcm_o_i[3] I
*I *797:A I *D sky130_fd_sc_hd__clkbuf_1
*CAP
1 vcm_o_i[3] 0.000524949
2 *797:A 0.000524949
3 *797:A *252:55 0.0001249
4 vcm_o[3] *797:A 0
5 vcm_o[4] *797:A 0
*RES
1 vcm_o_i[3] *797:A 12.57 
*END

*D_NET *44 0.00103774
*CONN
*P vcm_o_i[4] I
*I *798:A I *D sky130_fd_sc_hd__clkbuf_1
*CAP
1 vcm_o_i[4] 0.000517829
2 *798:A 0.000517829
3 *798:A *833:A 2.0851e-06
4 vcm_o[4] *798:A 0
5 vcm_o[5] *798:A 0
*RES
1 vcm_o_i[4] *798:A 11.88 
*END

*D_NET *45 0.00238804
*CONN
*P vcm_o_i[5] I
*I *799:A I *D sky130_fd_sc_hd__clkbuf_1
*CAP
1 vcm_o_i[5] 0.000652823
2 *799:A 0.000652823
3 *799:A *647:B 4.66108e-05
4 *799:A *722:A1 0.000370935
5 *799:A *722:A2 0.000124895
6 *799:A *722:B1 1.39525e-05
7 *799:A *835:A 5.18595e-05
8 *799:A *157:100 0.00011964
9 *799:A *192:25 0.000235573
10 *799:A *252:55 7.23602e-05
11 *799:A *302:38 3.63661e-05
12 vcm_o[5] *799:A 0
13 vcm_o[6] *799:A 1.02024e-05
*RES
1 vcm_o_i[5] *799:A 18.225 
*END

*D_NET *46 0.00143758
*CONN
*P vcm_o_i[6] I
*I *800:A I *D sky130_fd_sc_hd__clkbuf_1
*CAP
1 vcm_o_i[6] 0.000527551
2 *800:A 0.000527551
3 *800:A *722:A1 0.000142669
4 *800:A *157:100 0.000239813
5 *800:A *258:16 0
6 vcm_o[6] *800:A 0
7 vcm_o[7] *800:A 0
*RES
1 vcm_o_i[6] *800:A 13.605 
*END

*D_NET *47 0.00117748
*CONN
*P vcm_o_i[7] I
*I *802:A I *D sky130_fd_sc_hd__clkbuf_1
*CAP
1 vcm_o_i[7] 0.000517099
2 *802:A 0.000517099
3 *802:A *157:109 0.0001249
4 *802:A *217:10 1.83847e-05
5 vcm_o[7] *802:A 0
6 vcm_o[8] *802:A 0
*RES
1 vcm_o_i[7] *802:A 12.57 
*END

*D_NET *48 0.00120882
*CONN
*P vcm_o_i[8] I
*I *803:A I *D sky130_fd_sc_hd__clkbuf_1
*CAP
1 vcm_o_i[8] 0.000491464
2 *803:A 0.000491464
3 *803:A *616:A2 7.12208e-05
4 *803:A *649:B 1.39525e-05
5 *803:A *157:124 0.000122337
6 *803:A *218:14 1.83847e-05
7 vcm_o[8] *803:A 0
8 vcm_o[9] *803:A 0
*RES
1 vcm_o_i[8] *803:A 12.57 
*END

*D_NET *49 0.0011476
*CONN
*P vcm_o_i[9] I
*I *804:A I *D sky130_fd_sc_hd__clkbuf_1
*CAP
1 vcm_o_i[9] 0.000486967
2 *804:A 0.000486967
3 *804:A *157:137 7.35813e-05
4 *804:A *282:29 0.000100084
5 vcm_o[10] *804:A 0
6 vcm_o[9] *804:A 0
*RES
1 vcm_o_i[9] *804:A 12.57 
*END

*D_NET *50 0.00160021
*CONN
*P vin_n_sw_on I
*I *805:A I *D sky130_fd_sc_hd__buf_1
*CAP
1 vin_n_sw_on 0.00057351
2 *805:A 0.00057351
3 *805:A vref_z_n_o[10] 0.000334238
4 *805:A vref_z_n_o[9] 0.000118948
5 *805:A *842:A 0
6 *805:A *845:A 0
7 *810:A *805:A 0
*RES
1 vin_n_sw_on *805:A 7.8773 
*END

*D_NET *51 0.00187387
*CONN
*P vin_p_sw_on I
*I *806:A I *D sky130_fd_sc_hd__clkbuf_1
*CAP
1 vin_p_sw_on 0.000580897
2 *806:A 0.000580897
3 *806:A vref_z_p_o[10] 0.000352747
4 *806:A vref_z_p_o[9] 1.03115e-05
5 *806:A *814:A 0.000229579
6 *806:A *859:A 0
7 clk_data *806:A 0.000119433
*RES
1 vin_p_sw_on *806:A 13.53 
*END

*D_NET *52 0.0010034
*CONN
*P vref_z_n_o[0] O
*I *839:X O *D sky130_fd_sc_hd__buf_2
*CAP
1 vref_z_n_o[0] 0.00014766
2 *839:X 0.00014766
3 vref_z_n_o[0] vref_z_n_o[1] 0.000335861
4 vref_z_n_o[0] vss_n_o[10] 0.000348512
5 vref_z_n_o[0] *841:A 2.37037e-05
*RES
1 *839:X vref_z_n_o[0] 5.70637 
*END

*D_NET *53 0.00103378
*CONN
*P vref_z_n_o[10] O
*I *840:X O *D sky130_fd_sc_hd__buf_2
*CAP
1 vref_z_n_o[10] 0.000145188
2 *840:X 0.000145188
3 vref_z_n_o[10] vref_z_n_o[9] 0.000348512
4 vref_z_n_o[10] *842:A 0
5 *805:A vref_z_n_o[10] 0.000334238
6 *811:A vref_z_n_o[10] 6.06593e-05
*RES
1 *840:X vref_z_n_o[10] 5.70637 
*END

*D_NET *54 0.000962399
*CONN
*P vref_z_n_o[1] O
*I *841:X O *D sky130_fd_sc_hd__buf_2
*CAP
1 vref_z_n_o[1] 0.000139013
2 *841:X 0.000139013
3 vref_z_n_o[1] vref_z_n_o[2] 0.000348512
4 vref_z_n_o[1] *848:A 0
5 vref_z_n_o[0] vref_z_n_o[1] 0.000335861
*RES
1 *841:X vref_z_n_o[1] 5.45137 
*END

*D_NET *55 0.00118872
*CONN
*P vref_z_n_o[2] O
*I *842:X O *D sky130_fd_sc_hd__buf_2
*CAP
1 vref_z_n_o[2] 0.000176279
2 *842:X 0.000176279
3 vref_z_n_o[2] vref_z_n_o[3] 0.000365796
4 vref_z_n_o[2] vss_n_o[10] 0
5 vref_z_n_o[2] *844:A 0.000101285
6 vref_z_n_o[2] *848:A 2.05641e-05
7 vref_z_n_o[1] vref_z_n_o[2] 0.000348512
*RES
1 *842:X vref_z_n_o[2] 5.42943 
*END

*D_NET *56 0.00169007
*CONN
*P vref_z_n_o[3] O
*I *843:X O *D sky130_fd_sc_hd__buf_2
*CAP
1 vref_z_n_o[3] 0.000237057
2 *843:X 0.000237057
3 vref_z_n_o[3] vref_z_n_o[4] 0.000348512
4 vref_z_n_o[3] vref_z_n_o[5] 9.22768e-05
5 vref_z_n_o[3] *675:A 4.40358e-05
6 vref_z_n_o[3] *844:A 0.000258988