*SPEF "ieee 1481-1999"
*DESIGN "state_machine"
*DATE "19:23:22 Sunday April 14, 2024"
*VENDOR "The OpenROAD Project"
*PROGRAM "OpenROAD"
*VERSION "0889970d1790a2617e69f253221b8bd7626e51dc"
*DESIGN_FLOW "NAME_SCOPE LOCAL" "PIN_CAP NONE"
*DIVIDER /
*DELIMITER :
*BUS_DELIMITER []
*T_UNIT 1 NS
*C_UNIT 1 PF
*R_UNIT 1 OHM
*L_UNIT 1 HENRY

*NAME_MAP
*3 clk
*4 clk_data
*5 comp_n
*6 comp_p
*7 data[0]
*8 data[1]
*9 data[2]
*10 data[3]
*11 data[4]
*12 data[5]
*13 debug_mux[0]
*14 debug_mux[1]
*15 debug_mux[2]
*16 debug_mux[3]
*17 debug_out
*18 en_comp
*19 en_offset_cal
*20 en_offset_cal_o
*21 en_vcm_sw_o
*22 en_vcm_sw_o_i
*23 offset_cal_cycle
*24 rst_z
*25 sample_o
*26 single_ended
*27 start
*28 vcm_dummy_o
*29 vcm_o[0]
*30 vcm_o[10]
*31 vcm_o[1]
*32 vcm_o[2]
*33 vcm_o[3]
*34 vcm_o[4]
*35 vcm_o[5]
*36 vcm_o[6]
*37 vcm_o[7]
*38 vcm_o[8]
*39 vcm_o[9]
*40 vcm_o_i[0]
*41 vcm_o_i[10]
*42 vcm_o_i[1]
*43 vcm_o_i[2]
*44 vcm_o_i[3]
*45 vcm_o_i[4]
*46 vcm_o_i[5]
*47 vcm_o_i[6]
*48 vcm_o_i[7]
*49 vcm_o_i[8]
*50 vcm_o_i[9]
*51 vin_n_sw_on
*52 vin_p_sw_on
*53 vref_z_n_o[0]
*54 vref_z_n_o[10]
*55 vref_z_n_o[1]
*56 vref_z_n_o[2]
*57 vref_z_n_o[3]
*58 vref_z_n_o[4]
*59 vref_z_n_o[5]
*60 vref_z_n_o[6]
*61 vref_z_n_o[7]
*62 vref_z_n_o[8]
*63 vref_z_n_o[9]
*64 vref_z_p_o[0]
*65 vref_z_p_o[10]
*66 vref_z_p_o[1]
*67 vref_z_p_o[2]
*68 vref_z_p_o[3]
*69 vref_z_p_o[4]
*70 vref_z_p_o[5]
*71 vref_z_p_o[6]
*72 vref_z_p_o[7]
*73 vref_z_p_o[8]
*74 vref_z_p_o[9]
*75 vss_n_o[0]
*76 vss_n_o[10]
*77 vss_n_o[1]
*78 vss_n_o[2]
*79 vss_n_o[3]
*80 vss_n_o[4]
*81 vss_n_o[5]
*82 vss_n_o[6]
*83 vss_n_o[7]
*84 vss_n_o[8]
*85 vss_n_o[9]
*86 vss_p_o[0]
*87 vss_p_o[10]
*88 vss_p_o[1]
*89 vss_p_o[2]
*90 vss_p_o[3]
*91 vss_p_o[4]
*92 vss_p_o[5]
*93 vss_p_o[6]
*94 vss_p_o[7]
*95 vss_p_o[8]
*96 vss_p_o[9]
*97 _000_
*98 _001_
*99 _002_
*100 _003_
*101 _004_
*102 _005_
*103 _006_
*104 _007_
*105 _008_
*106 _009_
*107 _010_
*108 _011_
*109 _012_
*110 _013_
*111 _014_
*112 _015_
*113 _016_
*114 _017_
*115 _018_
*116 _019_
*117 _020_
*118 _021_
*119 _022_
*120 _023_
*121 _024_
*122 _025_
*123 _026_
*124 _027_
*125 _028_
*126 _029_
*127 _030_
*128 _031_
*129 _032_
*130 _033_
*131 _034_
*132 _035_
*133 _036_
*134 _037_
*135 _038_
*136 _039_
*137 _040_
*138 _041_
*139 _042_
*140 _043_
*141 _044_
*142 _045_
*143 _046_
*144 _047_
*145 _048_
*146 _049_
*147 _050_
*148 _051_
*149 _052_
*150 _053_
*151 _054_
*152 _055_
*153 _056_
*154 _057_
*155 _058_
*156 _059_
*157 _060_
*158 _061_
*159 _062_
*160 _063_
*161 _064_
*162 _065_
*163 _066_
*164 _067_
*165 _068_
*166 _069_
*167 _070_
*168 _071_
*169 _072_
*170 _073_
*171 _074_
*172 _075_
*173 _076_
*174 _077_
*175 _078_
*176 _079_
*177 _080_
*178 _081_
*179 _082_
*180 _083_
*181 _084_
*182 _085_
*183 _086_
*184 _087_
*185 _088_
*186 _089_
*187 _090_
*188 _091_
*189 _092_
*190 _093_
*191 _094_
*192 _095_
*193 _096_
*194 _097_
*195 _098_
*196 _099_
*197 _100_
*198 _101_
*199 _102_
*200 _103_
*201 _104_
*202 _105_
*203 _106_
*204 _107_
*205 _108_
*206 _109_
*207 _110_
*208 _111_
*209 _112_
*210 _113_
*211 _114_
*212 _115_
*213 _116_
*214 _117_
*215 _118_
*216 _119_
*217 _120_
*218 _121_
*219 _122_
*220 _123_
*221 _124_
*222 _125_
*223 _126_
*224 _127_
*225 _128_
*226 _129_
*227 _130_
*228 _131_
*229 _132_
*230 _133_
*231 _134_
*232 _135_
*233 _136_
*234 _137_
*235 _138_
*236 _139_
*237 _140_
*238 _141_
*239 _142_
*240 _143_
*241 _144_
*242 _145_
*243 _146_
*244 _147_
*245 _148_
*246 _149_
*247 _150_
*248 _151_
*249 _152_
*250 _153_
*251 _154_
*252 _155_
*253 _156_
*254 _157_
*255 _158_
*256 _159_
*257 _160_
*258 _161_
*259 _162_
*260 _163_
*261 _164_
*262 _165_
*263 _166_
*264 _167_
*265 _168_
*266 _169_
*267 _170_
*268 _171_
*269 counter\[0\]
*270 counter\[10\]
*271 counter\[11\]
*272 counter\[1\]
*273 counter\[2\]
*274 counter\[3\]
*275 counter\[4\]
*276 counter\[5\]
*277 counter\[6\]
*278 counter\[7\]
*279 counter\[8\]
*280 counter\[9\]
*281 counter_sample
*282 net1
*283 net10
*284 net100
*285 net101
*286 net102
*287 net103
*288 net104
*289 net105
*290 net106
*291 net107
*292 net108
*293 net109
*294 net11
*295 net110
*296 net111
*297 net112
*298 net113
*299 net114
*300 net115
*301 net116
*302 net117
*303 net118
*304 net12
*305 net13
*306 net14
*307 net15
*308 net16
*309 net17
*310 net18
*311 net19
*312 net2
*313 net20
*314 net21
*315 net22
*316 net23
*317 net24
*318 net25
*319 net26
*320 net27
*321 net28
*322 net29
*323 net3
*324 net30
*325 net31
*326 net32
*327 net33
*328 net34
*329 net35
*330 net36
*331 net37
*332 net38
*333 net39
*334 net4
*335 net40
*336 net41
*337 net42
*338 net43
*339 net44
*340 net45
*341 net46
*342 net47
*343 net48
*344 net49
*345 net5
*346 net50
*347 net51
*348 net52
*349 net53
*350 net54
*351 net55
*352 net56
*353 net57
*354 net58
*355 net59
*356 net6
*357 net60
*358 net61
*359 net62
*360 net63
*361 net64
*362 net65
*363 net66
*364 net67
*365 net68
*366 net69
*367 net7
*368 net70
*369 net71
*370 net72
*371 net73
*372 net74
*373 net75
*374 net76
*375 net77
*376 net78
*377 net79
*378 net8
*379 net80
*380 net81
*381 net82
*382 net83
*383 net84
*384 net85
*385 net86
*386 net87
*387 net88
*388 net89
*389 net9
*390 net90
*391 net91
*392 net92
*393 net93
*394 net94
*395 net95
*396 net96
*397 net97
*398 net98
*399 net99
*400 result\[0\]
*401 result\[10\]
*402 result\[11\]
*403 result\[1\]
*404 result\[2\]
*405 result\[3\]
*406 result\[4\]
*407 result\[5\]
*408 result\[6\]
*409 result\[7\]
*410 result\[8\]
*411 result\[9\]
*412 single_ended_reg
*413 state\[0\]
*414 state\[1\]
*415 ANTENNA_1
*416 ANTENNA_2
*417 ANTENNA_3
*418 ANTENNA_4
*419 ANTENNA_5
*420 FILLER_0_0_100
*421 FILLER_0_0_109
*422 FILLER_0_0_123
*423 FILLER_0_0_129
*424 FILLER_0_0_135
*425 FILLER_0_0_141
*426 FILLER_0_0_160
*427 FILLER_0_0_172
*428 FILLER_0_0_190
*429 FILLER_0_0_201
*430 FILLER_0_0_209
*431 FILLER_0_0_225
*432 FILLER_0_0_244
*433 FILLER_0_0_281
*434 FILLER_0_0_3
*435 FILLER_0_0_55
*436 FILLER_0_0_64
*437 FILLER_0_0_72
*438 FILLER_0_0_80
*439 FILLER_0_0_85
*440 FILLER_0_1_106
*441 FILLER_0_1_120
*442 FILLER_0_1_157
*443 FILLER_0_1_179
*444 FILLER_0_1_215
*445 FILLER_0_1_33
*446 FILLER_0_1_54
*447 FILLER_0_1_9
*448 FILLER_0_2_149
*449 FILLER_0_2_15
*450 FILLER_0_2_176
*451 FILLER_0_2_186
*452 FILLER_0_2_194
*453 FILLER_0_2_20
*454 FILLER_0_2_228
*455 FILLER_0_2_27
*456 FILLER_0_2_275
*457 FILLER_0_2_40
*458 FILLER_0_2_76
*459 FILLER_0_2_91
*460 FILLER_0_3_111
*461 FILLER_0_3_118
*462 FILLER_0_3_122
*463 FILLER_0_3_126
*464 FILLER_0_3_142
*465 FILLER_0_3_15
*466 FILLER_0_3_169
*467 FILLER_0_3_234
*468 FILLER_0_3_244
*469 FILLER_0_3_277
*470 FILLER_0_3_285
*471 FILLER_0_3_44
*472 FILLER_0_3_57
*473 FILLER_0_3_66
*474 FILLER_0_3_70
*475 FILLER_0_3_76
*476 FILLER_0_3_95
*477 FILLER_0_3_99
*478 FILLER_0_4_118
*479 FILLER_0_4_128
*480 FILLER_0_4_135
*481 FILLER_0_4_151
*482 FILLER_0_4_166
*483 FILLER_0_4_187
*484 FILLER_0_4_195
*485 FILLER_0_4_218
*486 FILLER_0_4_245
*487 FILLER_0_4_274
*488 FILLER_0_4_280
*489 FILLER_0_4_55
*490 FILLER_0_4_7
*491 FILLER_0_4_70
*492 FILLER_0_4_82
*493 FILLER_0_4_94
*494 FILLER_0_5_110
*495 FILLER_0_5_113
*496 FILLER_0_5_135
*497 FILLER_0_5_158
*498 FILLER_0_5_162
*499 FILLER_0_5_181
*500 FILLER_0_5_198
*501 FILLER_0_5_203
*502 FILLER_0_5_217
*503 FILLER_0_5_267
*504 FILLER_0_5_281
*505 FILLER_0_5_51
*506 FILLER_0_5_74
*507 FILLER_0_5_82
*508 FILLER_0_5_87
*509 FILLER_0_5_97
*510 FILLER_0_6_11
*511 FILLER_0_6_135
*512 FILLER_0_6_166
*513 FILLER_0_6_17
*514 FILLER_0_6_172
*515 FILLER_0_6_225
*516 FILLER_0_6_256
*517 FILLER_0_6_260
*518 FILLER_0_6_38
*519 FILLER_0_6_64
*520 FILLER_0_6_74
*521 FILLER_0_7_11
*522 FILLER_0_7_126
*523 FILLER_0_7_143
*524 FILLER_0_7_169
*525 FILLER_0_7_192
*526 FILLER_0_7_223
*527 FILLER_0_7_225
*528 FILLER_0_7_234
*529 FILLER_0_7_264
*530 FILLER_0_7_281
*531 FILLER_0_7_38
*532 FILLER_0_7_61
*533 FILLER_0_7_97
*534 FILLER_0_8_120
*535 FILLER_0_8_146
*536 FILLER_0_8_156
*537 FILLER_0_8_173
*538 FILLER_0_8_18
*539 FILLER_0_8_186
*540 FILLER_0_8_206
*541 FILLER_0_8_228
*542 FILLER_0_8_250
*543 FILLER_0_8_256
*544 FILLER_0_8_268
*545 FILLER_0_8_88
*546 FILLER_0_9_106
*547 FILLER_0_9_145
*548 FILLER_0_9_154
*549 FILLER_0_9_162
*550 FILLER_0_9_167
*551 FILLER_0_9_190
*552 FILLER_0_9_223
*553 FILLER_0_9_225
*554 FILLER_0_9_26
*555 FILLER_0_9_261
*556 FILLER_0_9_275
*557 FILLER_0_9_34
*558 FILLER_0_9_44
*559 FILLER_0_9_91
*560 PHY_EDGE_ROW_0_Left_10
*561 PHY_EDGE_ROW_0_Right_0
*562 PHY_EDGE_ROW_1_Left_11
*563 PHY_EDGE_ROW_1_Right_1
*564 PHY_EDGE_ROW_2_Left_12
*565 PHY_EDGE_ROW_2_Right_2
*566 PHY_EDGE_ROW_3_Left_13
*567 PHY_EDGE_ROW_3_Right_3
*568 PHY_EDGE_ROW_4_Left_14
*569 PHY_EDGE_ROW_4_Right_4
*570 PHY_EDGE_ROW_5_Left_15
*571 PHY_EDGE_ROW_5_Right_5
*572 PHY_EDGE_ROW_6_Left_16
*573 PHY_EDGE_ROW_6_Right_6
*574 PHY_EDGE_ROW_7_Left_17
*575 PHY_EDGE_ROW_7_Right_7
*576 PHY_EDGE_ROW_8_Left_18
*577 PHY_EDGE_ROW_8_Right_8
*578 PHY_EDGE_ROW_9_Left_19
*579 PHY_EDGE_ROW_9_Right_9
*580 TAP_TAPCELL_ROW_0_20
*581 TAP_TAPCELL_ROW_0_21
*582 TAP_TAPCELL_ROW_0_22
*583 TAP_TAPCELL_ROW_0_23
*584 TAP_TAPCELL_ROW_0_24
*585 TAP_TAPCELL_ROW_0_25
*586 TAP_TAPCELL_ROW_0_26
*587 TAP_TAPCELL_ROW_0_27
*588 TAP_TAPCELL_ROW_0_28
*589 TAP_TAPCELL_ROW_0_29
*590 TAP_TAPCELL_ROW_1_30
*591 TAP_TAPCELL_ROW_1_31
*592 TAP_TAPCELL_ROW_1_32
*593 TAP_TAPCELL_ROW_1_33
*594 TAP_TAPCELL_ROW_1_34
*595 TAP_TAPCELL_ROW_2_35
*596 TAP_TAPCELL_ROW_2_36
*597 TAP_TAPCELL_ROW_2_37
*598 TAP_TAPCELL_ROW_2_38
*599 TAP_TAPCELL_ROW_2_39
*600 TAP_TAPCELL_ROW_3_40
*601 TAP_TAPCELL_ROW_3_41
*602 TAP_TAPCELL_ROW_3_42
*603 TAP_TAPCELL_ROW_3_43
*604 TAP_TAPCELL_ROW_3_44
*605 TAP_TAPCELL_ROW_4_45
*606 TAP_TAPCELL_ROW_4_46
*607 TAP_TAPCELL_ROW_4_47
*608 TAP_TAPCELL_ROW_4_48
*609 TAP_TAPCELL_ROW_4_49
*610 TAP_TAPCELL_ROW_5_50
*611 TAP_TAPCELL_ROW_5_51
*612 TAP_TAPCELL_ROW_5_52
*613 TAP_TAPCELL_ROW_5_53
*614 TAP_TAPCELL_ROW_5_54
*615 TAP_TAPCELL_ROW_6_55
*616 TAP_TAPCELL_ROW_6_56
*617 TAP_TAPCELL_ROW_6_57
*618 TAP_TAPCELL_ROW_6_58
*619 TAP_TAPCELL_ROW_6_59
*620 TAP_TAPCELL_ROW_7_60
*621 TAP_TAPCELL_ROW_7_61
*622 TAP_TAPCELL_ROW_7_62
*623 TAP_TAPCELL_ROW_7_63
*624 TAP_TAPCELL_ROW_7_64
*625 TAP_TAPCELL_ROW_8_65
*626 TAP_TAPCELL_ROW_8_66
*627 TAP_TAPCELL_ROW_8_67
*628 TAP_TAPCELL_ROW_8_68
*629 TAP_TAPCELL_ROW_8_69
*630 TAP_TAPCELL_ROW_9_70
*631 TAP_TAPCELL_ROW_9_71
*632 TAP_TAPCELL_ROW_9_72
*633 TAP_TAPCELL_ROW_9_73
*634 TAP_TAPCELL_ROW_9_74
*635 TAP_TAPCELL_ROW_9_75
*636 TAP_TAPCELL_ROW_9_76
*637 TAP_TAPCELL_ROW_9_77
*638 TAP_TAPCELL_ROW_9_78
*639 TAP_TAPCELL_ROW_9_79
*640 _172_
*641 _173_
*642 _174_
*643 _175_
*644 _176_
*645 _177_
*646 _178_
*647 _179_
*648 _180_
*649 _181_
*650 _182_
*651 _183_
*652 _184_
*653 _185_
*654 _186_
*655 _187_
*656 _188_
*657 _189_
*658 _190_
*659 _191_
*660 _192_
*661 _193_
*662 _194_
*663 _195_
*664 _196_
*665 _197_
*666 _198_
*667 _199_
*668 _200_
*669 _201_
*670 _202_
*671 _203_
*672 _204_
*673 _205_
*674 _206_
*675 _207_
*676 _208_
*677 _209_
*678 _210_
*679 _211_
*680 _212_
*681 _213_
*682 _214_
*683 _215_
*684 _216_
*685 _217_
*686 _218_
*687 _219_
*688 _220_
*689 _221_
*690 _222_
*691 _223_
*692 _224_
*693 _225_
*694 _226_
*695 _227_
*696 _228_
*697 _229_
*698 _230_
*699 _231_
*700 _232_
*701 _233_
*702 _234_
*703 _235_
*704 _236_
*705 _237_
*706 _238_
*707 _239_
*708 _240_
*709 _241_
*710 _242_
*711 _243_
*712 _244_
*713 _245_
*714 _246_
*715 _247_
*716 _248_
*717 _249_
*718 _250_
*719 _251_
*720 _252_
*721 _253_
*722 _254_
*723 _255_
*724 _256_
*725 _257_
*726 _258_
*727 _259_
*728 _260_
*729 _261_
*730 _262_
*731 _263_
*732 _264_
*733 _265_
*734 _266_
*735 _267_
*736 _268_
*737 _269_
*738 _270_
*739 _271_
*740 _272_
*741 _273_
*742 _274_
*743 _275_
*744 _276_
*745 _277_
*746 _278_
*747 _279_
*748 _280_
*749 _281_
*750 _282_
*751 _283_
*752 _284_
*753 _285_
*754 _286_
*755 _287_
*756 _288_
*757 _289_
*758 _290_
*759 _291_
*760 _292_
*761 _293_
*762 _294_
*763 _295_
*764 _296_
*765 _297_
*766 _298_
*767 _299_
*768 _300_
*769 _301_
*770 _302_
*771 _303_
*772 _304_
*773 _305_
*774 _306_
*775 _307_
*776 _308_
*777 _309_
*778 _310_
*779 _311_
*780 _312_
*781 _313_
*782 _314_
*783 _315_
*784 _316_
*785 _317_
*786 _318_
*787 _319_
*788 _320_
*789 _321_
*790 _322_
*791 _323_
*792 _324_
*793 _325_
*794 _326_
*795 _327_
*796 _328_
*797 _329_
*798 _330_
*799 _331_
*800 _332_
*801 _333_
*802 _334_
*803 _335_
*804 _336_
*805 _337_
*806 _338_
*807 _339_
*808 _340_
*809 _341_
*810 _342_
*811 _343_
*812 _344_
*813 _345_
*814 _346_
*815 _347_
*816 _348_
*817 _349_
*818 _350_
*819 _351_
*820 _352_
*821 _353_
*822 _354_
*823 _355_
*824 _356_
*825 _357_
*826 _358_
*827 _359_
*828 _360_
*829 _361_
*830 _362_
*831 _363_
*832 _364_
*833 _365_
*834 _366_
*835 _367_
*836 _368_
*837 _369_
*838 _370_
*839 _371_
*840 _372_
*841 _373_
*842 _374_
*843 _375_
*844 _376_
*845 _377_
*846 _378_
*847 _379_
*848 _380_
*849 _381_
*850 _382_
*851 _383_
*852 _384_
*853 _385_
*854 _386_
*855 _387_
*856 _388_
*857 _389_
*858 _390_
*859 _391_
*860 _392_
*861 _393_
*862 _394_
*863 _395_
*864 _396_
*865 _397_
*866 _398_
*867 _399_
*868 _400_
*869 _401_
*870 _402_
*871 _403_
*872 _404_
*873 _405_
*874 _406_
*875 _407_
*876 _408_
*877 _409_
*878 _410_
*879 _411_
*880 _412_
*881 _413_
*882 _414_
*883 _415_
*884 _416_
*885 _417_
*886 _418_
*887 _419_
*888 _420_
*889 _421_
*890 _422_
*891 _423_
*892 _424_
*893 _425_
*894 _426_
*895 _427_
*896 _428_
*897 _429_
*898 _430_
*899 _431_
*900 _432_
*901 _433_
*902 _434_
*903 _435_
*904 _436_
*905 _437_
*906 _438_
*907 _439_
*908 _440_
*909 fanout100
*910 fanout101
*911 fanout102
*912 fanout103
*913 fanout104
*914 fanout105
*915 fanout106
*916 fanout107
*917 fanout108
*918 fanout109
*919 fanout110
*920 fanout111
*921 fanout112
*922 fanout113
*923 fanout114
*924 fanout115
*925 fanout116
*926 fanout117
*927 fanout118
*928 fanout95
*929 fanout96
*930 fanout98
*931 fanout99
*932 input1
*933 input10
*934 input11
*935 input12
*936 input13
*937 input14
*938 input15
*939 input16
*940 input17
*941 input18
*942 input19
*943 input2
*944 input20
*945 input21
*946 input22
*947 input23
*948 input24
*949 input25
*950 input3
*951 input4
*952 input5
*953 input6
*954 input7
*955 input8
*956 input9
*957 max_cap97
*958 output26
*959 output27
*960 output28
*961 output29
*962 output30
*963 output31
*964 output32
*965 output33
*966 output34
*967 output35
*968 output36
*969 output37
*970 output38
*971 output39
*972 output40
*973 output41
*974 output42
*975 output43
*976 output44
*977 output45
*978 output46
*979 output47
*980 output48
*981 output49
*982 output50
*983 output51
*984 output52
*985 output53
*986 output54
*987 output55
*988 output56
*989 output57
*990 output58
*991 output59
*992 output60
*993 output61
*994 output62
*995 output63
*996 output64
*997 output65
*998 output66
*999 output67
*1000 output68
*1001 output69
*1002 output70
*1003 output71
*1004 output72
*1005 output73
*1006 output74
*1007 output75
*1008 output76
*1009 output77
*1010 output78
*1011 output79
*1012 output80
*1013 output81
*1014 output82
*1015 output83
*1016 output84
*1017 output85
*1018 output86
*1019 output87
*1020 output88
*1021 output89
*1022 output90
*1023 output91
*1024 output92
*1025 output93
*1026 output94

*PORTS
clk I
clk_data O
comp_n I
comp_p I
data[0] O
data[1] O
data[2] O
data[3] O
data[4] O
data[5] O
debug_mux[0] I
debug_mux[1] I
debug_mux[2] I
debug_mux[3] I
debug_out O
en_comp O
en_offset_cal I
en_offset_cal_o O
en_vcm_sw_o O
en_vcm_sw_o_i I
offset_cal_cycle O
rst_z I
sample_o O
single_ended I
start I
vcm_dummy_o O
vcm_o[0] O
vcm_o[10] O
vcm_o[1] O
vcm_o[2] O
vcm_o[3] O
vcm_o[4] O
vcm_o[5] O
vcm_o[6] O
vcm_o[7] O
vcm_o[8] O
vcm_o[9] O
vcm_o_i[0] I
vcm_o_i[10] I
vcm_o_i[1] I
vcm_o_i[2] I
vcm_o_i[3] I
vcm_o_i[4] I
vcm_o_i[5] I
vcm_o_i[6] I
vcm_o_i[7] I
vcm_o_i[8] I
vcm_o_i[9] I
vin_n_sw_on I
vin_p_sw_on I
vref_z_n_o[0] O
vref_z_n_o[10] O
vref_z_n_o[1] O
vref_z_n_o[2] O
vref_z_n_o[3] O
vref_z_n_o[4] O
vref_z_n_o[5] O
vref_z_n_o[6] O
vref_z_n_o[7] O
vref_z_n_o[8] O
vref_z_n_o[9] O
vref_z_p_o[0] O
vref_z_p_o[10] O
vref_z_p_o[1] O
vref_z_p_o[2] O
vref_z_p_o[3] O
vref_z_p_o[4] O
vref_z_p_o[5] O
vref_z_p_o[6] O
vref_z_p_o[7] O
vref_z_p_o[8] O
vref_z_p_o[9] O
vss_n_o[0] O
vss_n_o[10] O
vss_n_o[1] O
vss_n_o[2] O
vss_n_o[3] O
vss_n_o[4] O
vss_n_o[5] O
vss_n_o[6] O
vss_n_o[7] O
vss_n_o[8] O
vss_n_o[9] O
vss_p_o[0] O
vss_p_o[10] O
vss_p_o[1] O
vss_p_o[2] O
vss_p_o[3] O
vss_p_o[4] O
vss_p_o[5] O
vss_p_o[6] O
vss_p_o[7] O
vss_p_o[8] O
vss_p_o[9] O

*D_NET *3 0.00131598
*CONN
*P clk I
*I *932:A I *D sky130_fd_sc_hd__clkbuf_1
*CAP
1 clk 0.00057174
2 *932:A 0.00057174
3 *932:A *794:C 5.71472e-05
4 *932:A *933:A 1.73088e-05
5 *932:A *368:12 9.80394e-05
6 *932:A *369:16 0
*RES
1 clk *932:A 24.9964 
*END

*D_NET *4 0.00123802
*CONN
*P clk_data O
*I *958:X O *D sky130_fd_sc_hd__clkbuf_4
*CAP
1 clk_data 0.00055187
2 *958:X 0.00055187
3 clk_data vref_z_p_o[10] 0.000134283
4 clk_data *1003:A 0
5 clk_data *1004:A 0
*RES
1 *958:X clk_data 24.9786 
*END

*D_NET *5 0.00625722
*CONN
*P comp_n I
*I *943:A I *D sky130_fd_sc_hd__buf_1
*CAP
1 comp_n 0.00225315
2 *943:A 0.00225315
3 *943:A vcm_o[0] 0
4 *943:A vss_p_o[2] 2.08286e-05
5 *943:A *642:A 3.45371e-05
6 *943:A *849:A2 0
7 *943:A *851:A1 0.000102017
8 *943:A *851:B1 0.000225982
9 *943:A *889:RESET_B 0.000244321
10 *943:A *890:D 0.000183726
11 *943:A *891:D 2.56694e-05
12 *943:A *950:A 0
13 *943:A *156:81 3.06878e-06
14 *943:A *272:12 0
15 *943:A *272:55 0
16 *943:A *274:38 0.000215625
17 *943:A *274:51 0.000519489
18 *943:A *296:55 0.000151129
19 *943:A *296:74 4.64283e-06
20 *943:A *386:32 1.98839e-05
*RES
1 comp_n *943:A 49.05 
*END

*D_NET *6 0.00175333
*CONN
*P comp_p I
*I *950:A I *D sky130_fd_sc_hd__buf_2
*CAP
1 comp_p 0.000723319
2 *950:A 0.000723319
3 *950:A en_comp 0
4 *950:A vss_p_o[2] 0.000116935
5 *950:A *1021:A 2.11419e-05
6 *950:A *1025:A 0.000168619
7 *943:A *950:A 0
*RES
1 comp_p *950:A 28.5143 
*END

*D_NET *7 0.00142374
*CONN
*P data[0] O
*I *959:X O *D sky130_fd_sc_hd__clkbuf_4
*CAP
1 data[0] 0.000572664
2 *959:X 0.000572664
3 data[0] *949:A 0.000160021
4 data[0] *958:A 1.74352e-05
5 data[0] *959:A 0.00010096
6 data[0] *1002:A 0
*RES
1 *959:X data[0] 25.0857 
*END

*D_NET *8 0.00135035
*CONN
*P data[1] O
*I *960:X O *D sky130_fd_sc_hd__clkbuf_4
*CAP
1 data[1] 0.000616604
2 *960:X 0.000616604
3 data[1] *814:A 1.64583e-05
4 data[1] *960:A 0.000100685
*RES
1 *960:X data[1] 25.0857 
*END

*D_NET *9 0.00115513
*CONN
*P data[2] O
*I *961:X O *D sky130_fd_sc_hd__clkbuf_4
*CAP
1 data[2] 0.000548795
2 *961:X 0.000548795
3 data[2] *671:A 3.18676e-05
4 data[2] *203:83 2.56694e-05
5 data[2] *300:39 0
*RES
1 *961:X data[2] 24.2643 
*END

*D_NET *10 0.00230769
*CONN
*P data[3] O
*I *962:X O *D sky130_fd_sc_hd__clkbuf_4
*CAP
1 data[3] 0.00088409
2 *962:X 0.00088409
3 data[3] *276:16 0.000417934
4 data[3] *300:69 0.000121573
*RES
1 *962:X data[3] 29.1929 
*END

*D_NET *11 0.00116401
*CONN
*P data[4] O
*I *963:X O *D sky130_fd_sc_hd__clkbuf_4
*CAP
1 data[4] 0.000582006
2 *963:X 0.000582006
3 data[4] *877:A 0
*RES
1 *963:X data[4] 24.6929 
*END

*D_NET *12 0.00166562
*CONN
*P data[5] O
*I *964:X O *D sky130_fd_sc_hd__clkbuf_4
*CAP
1 data[5] 0.000714635
2 *964:X 0.000714635
3 data[5] *801:B2 1.74352e-05
4 data[5] *964:A 0.000188586
5 data[5] *299:20 3.03304e-05
6 data[5] *351:35 0
*RES
1 *964:X data[5] 26.3179 
*END

*D_NET *13 0.00207327
*CONN
*P debug_mux[0] I
*I *951:A I *D sky130_fd_sc_hd__buf_2
*CAP
1 debug_mux[0] 0.000712366
2 *951:A 0.000712366
3 *951:A *743:A 2.89016e-05
4 *951:A *884:RESET_B 2.81497e-05
5 *951:A *297:46 0.000182437
6 *951:A *297:68 0.000132867
7 *951:A *301:137 0
8 *951:A *401:12 0.000276186
*RES
1 debug_mux[0] *951:A 30.5321 
*END

*D_NET *14 0.00144312
*CONN
*P debug_mux[1] I
*I *952:A I *D sky130_fd_sc_hd__buf_2
*CAP
1 debug_mux[1] 0.000646012
2 *952:A 0.000646012
3 *952:A *678:A 3.18676e-05
4 *952:A *678:C 1.33343e-05
5 *952:A *987:A 0
6 *952:A *297:68 5.64545e-05
7 *952:A *334:14 4.94362e-05
8 *952:A *345:14 0
*RES
1 debug_mux[1] *952:A 26.3536 
*END

*D_NET *15 0.00145497
*CONN
*P debug_mux[2] I
*I *953:A I *D sky130_fd_sc_hd__buf_1
*CAP
1 debug_mux[2] 0.000589418
2 *953:A 0.000589418
3 *953:A vref_z_n_o[9] 0
4 *953:A *948:A 0
5 *953:A *993:A 5.80706e-06
6 *953:A *354:63 0
7 *953:A *356:10 0.000202835
8 *953:A *367:10 6.74911e-05
*RES
1 debug_mux[2] *953:A 25.8179 
*END

*D_NET *16 0.00226414
*CONN
*P debug_mux[3] I
*I *954:A I *D sky130_fd_sc_hd__buf_1
*CAP
1 debug_mux[3] 0.000998477
2 *954:A 0.000998477
3 *954:A vref_z_n_o[10] 1.99644e-05
4 *954:A *678:A 0.000247216
5 *954:A *948:A 0
*RES
1 debug_mux[3] *954:A 32.1036 
*END

*D_NET *17 0.00162602
*CONN
*P debug_out O
*I *965:X O *D sky130_fd_sc_hd__clkbuf_4
*CAP
1 debug_out 0.000753255
2 *965:X 0.000753255
3 debug_out *881:D 5.51679e-05
4 debug_out *965:A 0
5 debug_out *300:33 0
6 debug_out *352:53 6.43424e-05
*RES
1 *965:X debug_out 29.1036 
*END

*D_NET *18 0.00402665
*CONN
*P en_comp O
*I *966:X O *D sky130_fd_sc_hd__buf_2
*CAP
1 en_comp 0.00173007
2 *966:X 0.00173007
3 en_comp sample_o 0
4 en_comp vcm_o[0] 2.84109e-05
5 en_comp vss_p_o[1] 9.58181e-05
6 en_comp *849:B1 5.74499e-06
7 en_comp *889:CLK 7.02611e-05
8 en_comp *889:D 6.92281e-05
9 en_comp *889:RESET_B 5.17792e-05
10 en_comp *1025:A 0
11 en_comp *272:6 7.77652e-05
12 en_comp *272:47 0.000115507
13 en_comp *273:30 7.74146e-06
14 en_comp *332:18 4.42593e-05
15 *950:A en_comp 0
*RES
1 *966:X en_comp 38.9429 
*END

*D_NET *19 0.00143495
*CONN
*P en_offset_cal I
*I *955:A I *D sky130_fd_sc_hd__buf_1
*CAP
1 en_offset_cal 0.000652351
2 *955:A 0.000652351
3 *955:A *934:A 0.000104809
4 *955:A *301:137 0
5 *955:A *360:24 1.21859e-05
6 *955:A *378:14 1.32552e-05
*RES
1 en_offset_cal *955:A 25.9429 
*END

*D_NET *20 0.00133534
*CONN
*P en_offset_cal_o O
*I *967:X O *D sky130_fd_sc_hd__clkbuf_4
*CAP
1 en_offset_cal_o 0.000667668
2 *967:X 0.000667668
3 en_offset_cal_o offset_cal_cycle 0
*RES
1 *967:X en_offset_cal_o 26.2286 
*END

*D_NET *21 0.00295279
*CONN
*P en_vcm_sw_o O
*I *968:X O *D sky130_fd_sc_hd__buf_2
*CAP
1 en_vcm_sw_o 0.000743365
2 *968:X 0.000743365
3 en_vcm_sw_o vcm_dummy_o 0
4 en_vcm_sw_o *664:A_N 0.000219711
5 en_vcm_sw_o *911:A 1.4487e-05
6 en_vcm_sw_o *956:A 0
7 en_vcm_sw_o *1007:A 0.000544077
8 en_vcm_sw_o *1008:A 0.000374833
9 en_vcm_sw_o *1011:A 0
10 en_vcm_sw_o *146:12 5.83304e-05
11 en_vcm_sw_o *286:8 0.000178847
12 en_vcm_sw_o *331:20 7.5779e-05
*RES
1 *968:X en_vcm_sw_o 31.5857 
*END

*D_NET *22 0.00221765
*CONN
*P en_vcm_sw_o_i I
*I *956:A I *D sky130_fd_sc_hd__clkbuf_1
*CAP
1 en_vcm_sw_o_i 0.000800306
2 *956:A 0.000800306
3 *956:A offset_cal_cycle 0
4 *956:A vss_n_o[2] 0.000159537
5 *956:A *662:A 0.000104085
6 *956:A *815:A2 3.4323e-06
7 *956:A *968:A 1.58163e-05
8 *956:A *1007:A 0
9 *956:A *1009:A 0.000172109
10 *956:A *1010:A 0
11 *956:A *1014:A 1.75091e-05
12 *956:A *378:26 0
13 *956:A *380:20 0.000144546
14 en_vcm_sw_o *956:A 0
*RES
1 en_vcm_sw_o_i *956:A 29.3893 
*END

*D_NET *23 0.00389207
*CONN
*P offset_cal_cycle O
*I *969:X O *D sky130_fd_sc_hd__buf_2
*CAP
1 offset_cal_cycle 0.000193274
2 *969:X 0.00147033
3 *23:14 0.0016636
4 *23:14 vcm_o[10] 0
5 *23:14 vss_n_o[0] 0.000111921
6 *23:14 *947:A 0.000253312
7 *23:14 *373:12 0.000199635
8 *23:14 *378:26 0
9 *23:14 *380:20 0
10 en_offset_cal_o offset_cal_cycle 0
11 *956:A offset_cal_cycle 0
*RES
1 *969:X *23:14 47.7643 
2 *23:14 offset_cal_cycle 8.35714 
*END

*D_NET *24 0.00244415
*CONN
*P rst_z I
*I *933:A I *D sky130_fd_sc_hd__clkbuf_1
*CAP
1 rst_z 0.000901516
2 *933:A 0.000901516
3 *933:A *659:A 9.60875e-05
4 *933:A *793:A1 0.00010096
5 *933:A *794:C 0.000145019
6 *933:A *822:B 3.48013e-05
7 *933:A *923:A 9.21719e-05
8 *933:A *965:A 0.00012864
9 *933:A *203:60 2.61337e-05
10 *932:A *933:A 1.73088e-05
*RES
1 rst_z *933:A 31.2821 
*END

*D_NET *25 0.00170963
*CONN
*P sample_o O
*I *970:X O *D sky130_fd_sc_hd__clkbuf_4
*CAP
1 sample_o 0.000854813
2 *970:X 0.000854813
3 en_comp sample_o 0
*RES
1 *970:X sample_o 28.7643 
*END

*D_NET *26 0.00279146
*CONN
*P single_ended I
*I *934:A I *D sky130_fd_sc_hd__clkbuf_1
*CAP
1 single_ended 0.000974054
2 *934:A 0.000974054
3 *934:A *860:A1 0.000102346
4 *934:A *921:A 0.000463944
5 *934:A *302:12 5.33005e-05
6 *934:A *304:20 8.6229e-06
7 *934:A *334:16 0
8 *934:A *345:20 7.72966e-05
9 *934:A *367:22 0
10 *934:A *370:12 0
11 *934:A *378:14 3.30352e-05
12 *955:A *934:A 0.000104809
*RES
1 single_ended *934:A 33.05 
*END

*D_NET *27 0.00141093
*CONN
*P start I
*I *935:A I *D sky130_fd_sc_hd__clkbuf_1
*CAP
1 start 0.000632348
2 *935:A 0.000632348
3 *935:A *794:A 0.000111383
4 *935:A *807:A1 0
5 *935:A *203:60 0
6 *935:A *356:16 0
7 *935:A *367:22 0
8 *935:A *367:28 3.4855e-05
9 *935:A *369:16 0
*RES
1 start *935:A 25.9429 
*END

*D_NET *28 0.00265253
*CONN
*P vcm_dummy_o O
*I *971:X O *D sky130_fd_sc_hd__buf_2
*CAP
1 vcm_dummy_o 0.000898124
2 *971:X 0.000898124
3 vcm_dummy_o *899:D 5.72142e-05
4 vcm_dummy_o *937:A 0.000549808
5 vcm_dummy_o *230:26 0
6 vcm_dummy_o *271:139 0.000190845
7 vcm_dummy_o *302:54 2.36154e-05
8 vcm_dummy_o *306:14 3.48023e-05
9 vcm_dummy_o *414:12 0
10 en_vcm_sw_o vcm_dummy_o 0
*RES
1 *971:X vcm_dummy_o 34.3893 
*END

*D_NET *29 0.00141504
*CONN
*P vcm_o[0] O
*I *972:X O *D sky130_fd_sc_hd__buf_2
*CAP
1 vcm_o[0] 0.000552506
2 *972:X 0.000552506
3 vcm_o[0] vss_p_o[1] 6.90348e-06
4 vcm_o[0] *681:C_N 0
5 vcm_o[0] *849:B1 5.14498e-05
6 vcm_o[0] *936:A 0
7 vcm_o[0] *972:A 5.04841e-06
8 vcm_o[0] *272:47 5.04841e-06
9 vcm_o[0] *272:55 0.000213163
10 en_comp vcm_o[0] 2.84109e-05
11 *943:A vcm_o[0] 0
*RES
1 *972:X vcm_o[0] 25.05 
*END

*D_NET *30 0.00173459
*CONN
*P vcm_o[10] O
*I *973:X O *D sky130_fd_sc_hd__buf_2
*CAP
1 vcm_o[10] 0.000708243
2 *973:X 0.000708243
3 vcm_o[10] *937:A 0
4 vcm_o[10] *947:A 0.000318107
5 vcm_o[10] *331:20 0
6 *23:14 vcm_o[10] 0
*RES
1 *973:X vcm_o[10] 25.5143 
*END

*D_NET *31 0.00136281
*CONN
*P vcm_o[1] O
*I *974:X O *D sky130_fd_sc_hd__buf_2
*CAP
1 vcm_o[1] 0.000571692
2 *974:X 0.000571692
3 vcm_o[1] vss_p_o[0] 0
4 vcm_o[1] *772:B 0.000183726
5 vcm_o[1] *936:A 0
6 vcm_o[1] *938:A 0
7 vcm_o[1] *371:18 3.56976e-05
*RES
1 *974:X vcm_o[1] 24.2821 
*END

*D_NET *32 0.00124432
*CONN
*P vcm_o[2] O
*I *975:X O *D sky130_fd_sc_hd__buf_2
*CAP
1 vcm_o[2] 0.000550813
2 *975:X 0.000550813
3 vcm_o[2] *938:A 0
4 vcm_o[2] *939:A 0
5 vcm_o[2] *975:A 5.52302e-05
6 vcm_o[2] *202:57 2.65105e-05
7 vcm_o[2] *272:74 0
8 vcm_o[2] *274:69 6.09572e-05
9 vcm_o[2] *373:10 0
*RES
1 *975:X vcm_o[2] 23.8714 
*END

*D_NET *33 0.00128967
*CONN
*P vcm_o[3] O
*I *976:X O *D sky130_fd_sc_hd__buf_2
*CAP
1 vcm_o[3] 0.000554832
2 *976:X 0.000554832
3 vcm_o[3] *939:A 0
4 vcm_o[3] *940:A 0
5 vcm_o[3] *202:47 0.000130419
6 vcm_o[3] *202:57 1.24368e-05
7 vcm_o[3] *274:69 3.71496e-05
8 vcm_o[3] *374:12 0
*RES
1 *976:X vcm_o[3] 23.8714 
*END

*D_NET *34 0.00124301
*CONN
*P vcm_o[4] O
*I *977:X O *D sky130_fd_sc_hd__buf_2
*CAP
1 vcm_o[4] 0.000576457
2 *977:X 0.000576457
3 vcm_o[4] *940:A 0
4 vcm_o[4] *941:A 0
5 vcm_o[4] *977:A 5.52302e-05
6 vcm_o[4] *202:41 3.48705e-05
*RES
1 *977:X vcm_o[4] 23.8714 
*END

*D_NET *35 0.00125645
*CONN
*P vcm_o[5] O
*I *978:X O *D sky130_fd_sc_hd__buf_2
*CAP
1 vcm_o[5] 0.000583177
2 *978:X 0.000583177
3 vcm_o[5] *941:A 0
4 vcm_o[5] *942:A 0
5 vcm_o[5] *978:A 5.52302e-05
6 vcm_o[5] *202:39 3.48705e-05
7 vcm_o[5] *375:18 0
*RES
1 *978:X vcm_o[5] 23.8714 
*END

*D_NET *36 0.00127503
*CONN
*P vcm_o[6] O
*I *979:X O *D sky130_fd_sc_hd__buf_2
*CAP
1 vcm_o[6] 0.000590235
2 *979:X 0.000590235
3 vcm_o[6] *693:C 4.46186e-06
4 vcm_o[6] *942:A 0
5 vcm_o[6] *944:A 0
6 vcm_o[6] *979:A 5.52302e-05
7 vcm_o[6] *202:24 3.48705e-05
8 vcm_o[6] *377:16 0
*RES
1 *979:X vcm_o[6] 23.8714 
*END

*D_NET *37 0.00126485
*CONN
*P vcm_o[7] O
*I *980:X O *D sky130_fd_sc_hd__buf_2
*CAP
1 vcm_o[7] 0.000587375
2 *980:X 0.000587375
3 vcm_o[7] *944:A 0
4 vcm_o[7] *945:A 0
5 vcm_o[7] *980:A 5.52302e-05
6 vcm_o[7] *144:22 0
7 vcm_o[7] *202:22 3.48705e-05
8 vcm_o[7] *328:21 0
9 vcm_o[7] *393:20 0
*RES
1 *980:X vcm_o[7] 23.8714 
*END

*D_NET *38 0.00144006
*CONN
*P vcm_o[8] O
*I *981:X O *D sky130_fd_sc_hd__buf_2
*CAP
1 vcm_o[8] 0.000594339
2 *981:X 0.000594339
3 vcm_o[8] *945:A 0
4 vcm_o[8] *946:A 0
5 vcm_o[8] *144:22 0
6 vcm_o[8] *202:14 0.000186669
7 vcm_o[8] *380:10 6.47173e-05
*RES
1 *981:X vcm_o[8] 24.2821 
*END

*D_NET *39 0.00132789
*CONN
*P vcm_o[9] O
*I *982:X O *D sky130_fd_sc_hd__buf_2
*CAP
1 vcm_o[9] 0.000552858
2 *982:X 0.000552858
3 vcm_o[9] *661:A 6.05161e-06
4 vcm_o[9] *946:A 0
5 vcm_o[9] *947:A 0
6 vcm_o[9] *1005:A 0
7 vcm_o[9] *202:6 5.04705e-05
8 vcm_o[9] *378:26 0.000165653
*RES
1 *982:X vcm_o[9] 23.8714 
*END

*D_NET *40 0.00235734
*CONN
*P vcm_o_i[0] I
*I *936:A I *D sky130_fd_sc_hd__clkbuf_1
*CAP
1 vcm_o_i[0] 0.000817208
2 *936:A 0.000817208
3 *936:A vss_p_o[0] 0
4 *936:A *649:A 0.00010096
5 *936:A *681:B 0.000272371
6 *936:A *681:C_N 0
7 *936:A *966:A 0.000121716
8 *936:A *1016:A 0
9 *936:A *273:20 2.14757e-05
10 *936:A *287:90 1.24368e-05
11 *936:A *290:70 0.000193968
12 vcm_o[0] *936:A 0
13 vcm_o[1] *936:A 0
*RES
1 vcm_o_i[0] *936:A 29.3893 
*END

*D_NET *41 0.00293268
*CONN
*P vcm_o_i[10] I
*I *937:A I *D sky130_fd_sc_hd__clkbuf_1
*CAP
1 vcm_o_i[10] 0.000851498
2 *937:A 0.000851498
3 *937:A *770:A 0
4 *937:A *147:10 0.000348213
5 *937:A *230:26 6.09629e-05
6 *937:A *271:28 3.31656e-05
7 *937:A *271:139 4.43256e-05
8 *937:A *414:6 5.33005e-05
9 *937:A *414:32 0.000139907
10 vcm_dummy_o *937:A 0.000549808
11 vcm_o[10] *937:A 0
*RES
1 vcm_o_i[10] *937:A 32.4607 
*END

*D_NET *42 0.00176742
*CONN
*P vcm_o_i[1] I
*I *938:A I *D sky130_fd_sc_hd__clkbuf_1
*CAP
1 vcm_o_i[1] 0.000579657
2 *938:A 0.000579657
3 *938:A *656:A 6.21956e-05
4 *938:A *771:A 0.000168354
5 *938:A *202:63 0.000274294
6 *938:A *272:74 0.000103267
7 *938:A *371:18 0
8 vcm_o[1] *938:A 0
9 vcm_o[2] *938:A 0
*RES
1 vcm_o_i[1] *938:A 26.4429 
*END

*D_NET *43 0.00157515
*CONN
*P vcm_o_i[2] I
*I *939:A I *D sky130_fd_sc_hd__clkbuf_1
*CAP
1 vcm_o_i[2] 0.000561889
2 *939:A 0.000561889
3 *939:A *686:A 0.000102168
4 *939:A *202:57 0.00018372
5 *939:A *274:69 0
6 *939:A *373:10 0.000165488
7 vcm_o[2] *939:A 0
8 vcm_o[3] *939:A 0
*RES
1 vcm_o_i[2] *939:A 25.6214 
*END

*D_NET *44 0.00109483
*CONN
*P vcm_o_i[3] I