*SPEF "ieee 1481-1999"
*DESIGN "state_machine"
*DATE "20:26:26 Sunday April 14, 2024"
*VENDOR "The OpenROAD Project"
*PROGRAM "OpenROAD"
*VERSION "0889970d1790a2617e69f253221b8bd7626e51dc"
*DESIGN_FLOW "NAME_SCOPE LOCAL" "PIN_CAP NONE"
*DIVIDER /
*DELIMITER :
*BUS_DELIMITER []
*T_UNIT 1 NS
*C_UNIT 1 PF
*R_UNIT 1 OHM
*L_UNIT 1 HENRY

*NAME_MAP
*3 clk
*4 clk_data
*5 comp_n
*6 comp_p
*7 data[0]
*8 data[1]
*9 data[2]
*10 data[3]
*11 data[4]
*12 data[5]
*13 debug_mux[0]
*14 debug_mux[1]
*15 debug_mux[2]
*16 debug_mux[3]
*17 debug_out
*18 en_comp
*19 en_offset_cal
*20 en_offset_cal_o
*21 en_vcm_sw_o
*22 en_vcm_sw_o_i
*23 offset_cal_cycle
*24 rst_z
*25 sample_o
*26 single_ended
*27 start
*28 vcm_dummy_o
*29 vcm_o[0]
*30 vcm_o[10]
*31 vcm_o[1]
*32 vcm_o[2]
*33 vcm_o[3]
*34 vcm_o[4]
*35 vcm_o[5]
*36 vcm_o[6]
*37 vcm_o[7]
*38 vcm_o[8]
*39 vcm_o[9]
*40 vcm_o_i[0]
*41 vcm_o_i[10]
*42 vcm_o_i[1]
*43 vcm_o_i[2]
*44 vcm_o_i[3]
*45 vcm_o_i[4]
*46 vcm_o_i[5]
*47 vcm_o_i[6]
*48 vcm_o_i[7]
*49 vcm_o_i[8]
*50 vcm_o_i[9]
*51 vin_n_sw_on
*52 vin_p_sw_on
*53 vref_z_n_o[0]
*54 vref_z_n_o[10]
*55 vref_z_n_o[1]
*56 vref_z_n_o[2]
*57 vref_z_n_o[3]
*58 vref_z_n_o[4]
*59 vref_z_n_o[5]
*60 vref_z_n_o[6]
*61 vref_z_n_o[7]
*62 vref_z_n_o[8]
*63 vref_z_n_o[9]
*64 vref_z_p_o[0]
*65 vref_z_p_o[10]
*66 vref_z_p_o[1]
*67 vref_z_p_o[2]
*68 vref_z_p_o[3]
*69 vref_z_p_o[4]
*70 vref_z_p_o[5]
*71 vref_z_p_o[6]
*72 vref_z_p_o[7]
*73 vref_z_p_o[8]
*74 vref_z_p_o[9]
*75 vss_n_o[0]
*76 vss_n_o[10]
*77 vss_n_o[1]
*78 vss_n_o[2]
*79 vss_n_o[3]
*80 vss_n_o[4]
*81 vss_n_o[5]
*82 vss_n_o[6]
*83 vss_n_o[7]
*84 vss_n_o[8]
*85 vss_n_o[9]
*86 vss_p_o[0]
*87 vss_p_o[10]
*88 vss_p_o[1]
*89 vss_p_o[2]
*90 vss_p_o[3]
*91 vss_p_o[4]
*92 vss_p_o[5]
*93 vss_p_o[6]
*94 vss_p_o[7]
*95 vss_p_o[8]
*96 vss_p_o[9]
*97 _000_
*98 _001_
*99 _002_
*100 _003_
*101 _004_
*102 _005_
*103 _006_
*104 _007_
*105 _008_
*106 _009_
*107 _010_
*108 _011_
*109 _012_
*110 _013_
*111 _014_
*112 _015_
*113 _016_
*114 _017_
*115 _018_
*116 _019_
*117 _020_
*118 _021_
*119 _022_
*120 _023_
*121 _024_
*122 _025_
*123 _026_
*124 _027_
*125 _028_
*126 _029_
*127 _030_
*128 _031_
*129 _032_
*130 _033_
*131 _034_
*132 _035_
*133 _036_
*134 _037_
*135 _038_
*136 _039_
*137 _040_
*138 _041_
*139 _042_
*140 _043_
*141 _044_
*142 _045_
*143 _046_
*144 _047_
*145 _048_
*146 _049_
*147 _050_
*148 _051_
*149 _052_
*150 _053_
*151 _054_
*152 _055_
*153 _056_
*154 _057_
*155 _058_
*156 _059_
*157 _060_
*158 _061_
*159 _062_
*160 _063_
*161 _064_
*162 _065_
*163 _066_
*164 _067_
*165 _068_
*166 _069_
*167 _070_
*168 _071_
*169 _072_
*170 _073_
*171 _074_
*172 _075_
*173 _076_
*174 _077_
*175 _078_
*176 _079_
*177 _080_
*178 _081_
*179 _082_
*180 _083_
*181 _084_
*182 _085_
*183 _086_
*184 _087_
*185 _088_
*186 _089_
*187 _090_
*188 _091_
*189 _092_
*190 _093_
*191 _094_
*192 _095_
*193 _096_
*194 _097_
*195 _098_
*196 _099_
*197 _100_
*198 _101_
*199 _102_
*200 _103_
*201 _104_
*202 _105_
*203 _106_
*204 _107_
*205 _108_
*206 _109_
*207 _110_
*208 _111_
*209 _112_
*210 _113_
*211 _114_
*212 _115_
*213 _116_
*214 _117_
*215 _118_
*216 _119_
*217 _120_
*218 _121_
*219 _122_
*220 _123_
*221 _124_
*222 _125_
*223 _126_
*224 _127_
*225 _128_
*226 _129_
*227 _130_
*228 _131_
*229 _132_
*230 _133_
*231 _134_
*232 _135_
*233 _136_
*234 _137_
*235 _138_
*236 _139_
*237 _140_
*238 _141_
*239 _142_
*240 _143_
*241 _144_
*242 _145_
*243 _146_
*244 _147_
*245 _148_
*246 _149_
*247 _150_
*248 _151_
*249 _152_
*250 _153_
*251 _154_
*252 _155_
*253 _156_
*254 _157_
*255 _158_
*256 _159_
*257 _160_
*258 _161_
*259 _162_
*260 _163_
*261 _164_
*262 _165_
*263 _166_
*264 _167_
*265 _168_
*266 _169_
*267 _170_
*268 _171_
*269 _172_
*270 _173_
*271 _174_
*272 counter\[0\]
*273 counter\[10\]
*274 counter\[11\]
*275 counter\[1\]
*276 counter\[2\]
*277 counter\[3\]
*278 counter\[4\]
*279 counter\[5\]
*280 counter\[6\]
*281 counter\[7\]
*282 counter\[8\]
*283 counter\[9\]
*284 counter_sample
*285 net1
*286 net10
*287 net100
*288 net101
*289 net102
*290 net103
*291 net104
*292 net105
*293 net106
*294 net107
*295 net108
*296 net109
*297 net11
*298 net110
*299 net111
*300 net112
*301 net113
*302 net114
*303 net115
*304 net116
*305 net117
*306 net12
*307 net13
*308 net14
*309 net15
*310 net16
*311 net17
*312 net18
*313 net19
*314 net2
*315 net20
*316 net21
*317 net22
*318 net23
*319 net24
*320 net25
*321 net26
*322 net27
*323 net28
*324 net29
*325 net3
*326 net30
*327 net31
*328 net32
*329 net33
*330 net34
*331 net35
*332 net36
*333 net37
*334 net38
*335 net39
*336 net4
*337 net40
*338 net41
*339 net42
*340 net43
*341 net44
*342 net45
*343 net46
*344 net47
*345 net48
*346 net49
*347 net5
*348 net50
*349 net51
*350 net52
*351 net53
*352 net54
*353 net55
*354 net56
*355 net57
*356 net58
*357 net59
*358 net6
*359 net60
*360 net61
*361 net62
*362 net63
*363 net64
*364 net65
*365 net66
*366 net67
*367 net68
*368 net69
*369 net7
*370 net70
*371 net71
*372 net72
*373 net73
*374 net74
*375 net75
*376 net76
*377 net77
*378 net78
*379 net79
*380 net8
*381 net80
*382 net81
*383 net82
*384 net83
*385 net84
*386 net85
*387 net86
*388 net87
*389 net88
*390 net89
*391 net9
*392 net90
*393 net91
*394 net92
*395 net93
*396 net94
*397 net95
*398 net96
*399 net97
*400 net98
*401 net99
*402 result\[0\]
*403 result\[10\]
*404 result\[11\]
*405 result\[1\]
*406 result\[2\]
*407 result\[3\]
*408 result\[4\]
*409 result\[5\]
*410 result\[6\]
*411 result\[7\]
*412 result\[8\]
*413 result\[9\]
*414 single_ended_reg
*415 state\[0\]
*416 state\[1\]
*417 ANTENNA_1
*418 ANTENNA_2
*419 ANTENNA_3
*420 ANTENNA_4
*421 ANTENNA_5
*422 ANTENNA_6
*423 FILLER_0_0_110
*424 FILLER_0_0_113
*425 FILLER_0_0_141
*426 FILLER_0_0_150
*427 FILLER_0_0_166
*428 FILLER_0_0_190
*429 FILLER_0_0_197
*430 FILLER_0_0_257
*431 FILLER_0_0_281
*432 FILLER_0_0_40
*433 FILLER_0_0_45
*434 FILLER_0_0_49
*435 FILLER_0_0_69
*436 FILLER_0_0_80
*437 FILLER_0_1_152
*438 FILLER_0_1_167
*439 FILLER_0_1_169
*440 FILLER_0_1_19
*441 FILLER_0_1_278
*442 FILLER_0_1_42
*443 FILLER_0_1_55
*444 FILLER_0_1_69
*445 FILLER_0_1_81
*446 FILLER_0_2_107
*447 FILLER_0_2_132
*448 FILLER_0_2_138
*449 FILLER_0_2_141
*450 FILLER_0_2_180
*451 FILLER_0_2_194
*452 FILLER_0_2_200
*453 FILLER_0_2_22
*454 FILLER_0_2_225
*455 FILLER_0_2_287
*456 FILLER_0_2_33
*457 FILLER_0_2_73
*458 FILLER_0_2_85
*459 FILLER_0_2_96
*460 FILLER_0_3_113
*461 FILLER_0_3_122
*462 FILLER_0_3_130
*463 FILLER_0_3_199
*464 FILLER_0_3_203
*465 FILLER_0_3_225
*466 FILLER_0_3_23
*467 FILLER_0_3_35
*468 FILLER_0_3_43
*469 FILLER_0_3_51
*470 FILLER_0_3_67
*471 FILLER_0_3_7
*472 FILLER_0_3_89
*473 FILLER_0_3_97
*474 FILLER_0_4_130
*475 FILLER_0_4_135
*476 FILLER_0_4_139
*477 FILLER_0_4_144
*478 FILLER_0_4_152
*479 FILLER_0_4_166
*480 FILLER_0_4_178
*481 FILLER_0_4_186
*482 FILLER_0_4_197
*483 FILLER_0_4_212
*484 FILLER_0_4_229
*485 FILLER_0_4_24
*486 FILLER_0_4_241
*487 FILLER_0_4_251
*488 FILLER_0_4_259
*489 FILLER_0_4_29
*490 FILLER_0_4_48
*491 FILLER_0_4_53
*492 FILLER_0_4_7
*493 FILLER_0_4_76
*494 FILLER_0_4_85
*495 FILLER_0_5_111
*496 FILLER_0_5_129
*497 FILLER_0_5_144
*498 FILLER_0_5_15
*499 FILLER_0_5_153
*500 FILLER_0_5_167
*501 FILLER_0_5_177
*502 FILLER_0_5_181
*503 FILLER_0_5_187
*504 FILLER_0_5_193
*505 FILLER_0_5_201
*506 FILLER_0_5_209
*507 FILLER_0_5_221
*508 FILLER_0_5_245
*509 FILLER_0_5_258
*510 FILLER_0_5_265
*511 FILLER_0_5_281
*512 FILLER_0_5_30
*513 FILLER_0_5_45
*514 FILLER_0_5_49
*515 FILLER_0_5_55
*516 FILLER_0_5_73
*517 FILLER_0_5_94
*518 FILLER_0_6_115
*519 FILLER_0_6_134
*520 FILLER_0_6_151
*521 FILLER_0_6_168
*522 FILLER_0_6_172
*523 FILLER_0_6_179
*524 FILLER_0_6_194
*525 FILLER_0_6_222
*526 FILLER_0_6_231
*527 FILLER_0_6_246
*528 FILLER_0_6_271
*529 FILLER_0_6_33
*530 FILLER_0_6_47
*531 FILLER_0_6_71
*532 FILLER_0_6_78
*533 FILLER_0_7_108
*534 FILLER_0_7_11
*535 FILLER_0_7_123
*536 FILLER_0_7_145
*537 FILLER_0_7_149
*538 FILLER_0_7_156
*539 FILLER_0_7_162
*540 FILLER_0_7_181
*541 FILLER_0_7_203
*542 FILLER_0_7_26
*543 FILLER_0_7_269
*544 FILLER_0_7_275
*545 FILLER_0_7_281
*546 FILLER_0_7_45
*547 FILLER_0_7_57
*548 FILLER_0_7_93
*549 FILLER_0_8_106
*550 FILLER_0_8_156
*551 FILLER_0_8_169
*552 FILLER_0_8_239
*553 FILLER_0_8_250
*554 FILLER_0_8_273
*555 FILLER_0_8_29
*556 FILLER_0_8_74
*557 FILLER_0_8_90
*558 FILLER_0_9_119
*559 FILLER_0_9_194
*560 FILLER_0_9_217
*561 FILLER_0_9_235
*562 FILLER_0_9_240
*563 FILLER_0_9_248
*564 FILLER_0_9_253
*565 FILLER_0_9_258
*566 FILLER_0_9_26
*567 FILLER_0_9_266
*568 FILLER_0_9_275
*569 FILLER_0_9_44
*570 FILLER_0_9_66
*571 FILLER_0_9_83
*572 FILLER_0_9_85
*573 PHY_EDGE_ROW_0_Left_10
*574 PHY_EDGE_ROW_0_Right_0
*575 PHY_EDGE_ROW_1_Left_11
*576 PHY_EDGE_ROW_1_Right_1
*577 PHY_EDGE_ROW_2_Left_12
*578 PHY_EDGE_ROW_2_Right_2
*579 PHY_EDGE_ROW_3_Left_13
*580 PHY_EDGE_ROW_3_Right_3
*581 PHY_EDGE_ROW_4_Left_14
*582 PHY_EDGE_ROW_4_Right_4
*583 PHY_EDGE_ROW_5_Left_15
*584 PHY_EDGE_ROW_5_Right_5
*585 PHY_EDGE_ROW_6_Left_16
*586 PHY_EDGE_ROW_6_Right_6
*587 PHY_EDGE_ROW_7_Left_17
*588 PHY_EDGE_ROW_7_Right_7
*589 PHY_EDGE_ROW_8_Left_18
*590 PHY_EDGE_ROW_8_Right_8
*591 PHY_EDGE_ROW_9_Left_19
*592 PHY_EDGE_ROW_9_Right_9
*593 TAP_TAPCELL_ROW_0_20
*594 TAP_TAPCELL_ROW_0_21
*595 TAP_TAPCELL_ROW_0_22
*596 TAP_TAPCELL_ROW_0_23
*597 TAP_TAPCELL_ROW_0_24
*598 TAP_TAPCELL_ROW_0_25
*599 TAP_TAPCELL_ROW_0_26
*600 TAP_TAPCELL_ROW_0_27
*601 TAP_TAPCELL_ROW_0_28
*602 TAP_TAPCELL_ROW_0_29
*603 TAP_TAPCELL_ROW_1_30
*604 TAP_TAPCELL_ROW_1_31
*605 TAP_TAPCELL_ROW_1_32
*606 TAP_TAPCELL_ROW_1_33
*607 TAP_TAPCELL_ROW_1_34
*608 TAP_TAPCELL_ROW_2_35
*609 TAP_TAPCELL_ROW_2_36
*610 TAP_TAPCELL_ROW_2_37
*611 TAP_TAPCELL_ROW_2_38
*612 TAP_TAPCELL_ROW_2_39
*613 TAP_TAPCELL_ROW_3_40
*614 TAP_TAPCELL_ROW_3_41
*615 TAP_TAPCELL_ROW_3_42
*616 TAP_TAPCELL_ROW_3_43
*617 TAP_TAPCELL_ROW_3_44
*618 TAP_TAPCELL_ROW_4_45
*619 TAP_TAPCELL_ROW_4_46
*620 TAP_TAPCELL_ROW_4_47
*621 TAP_TAPCELL_ROW_4_48
*622 TAP_TAPCELL_ROW_4_49
*623 TAP_TAPCELL_ROW_5_50
*624 TAP_TAPCELL_ROW_5_51
*625 TAP_TAPCELL_ROW_5_52
*626 TAP_TAPCELL_ROW_5_53
*627 TAP_TAPCELL_ROW_5_54
*628 TAP_TAPCELL_ROW_6_55
*629 TAP_TAPCELL_ROW_6_56
*630 TAP_TAPCELL_ROW_6_57
*631 TAP_TAPCELL_ROW_6_58
*632 TAP_TAPCELL_ROW_6_59
*633 TAP_TAPCELL_ROW_7_60
*634 TAP_TAPCELL_ROW_7_61
*635 TAP_TAPCELL_ROW_7_62
*636 TAP_TAPCELL_ROW_7_63
*637 TAP_TAPCELL_ROW_7_64
*638 TAP_TAPCELL_ROW_8_65
*639 TAP_TAPCELL_ROW_8_66
*640 TAP_TAPCELL_ROW_8_67
*641 TAP_TAPCELL_ROW_8_68
*642 TAP_TAPCELL_ROW_8_69
*643 TAP_TAPCELL_ROW_9_70
*644 TAP_TAPCELL_ROW_9_71
*645 TAP_TAPCELL_ROW_9_72
*646 TAP_TAPCELL_ROW_9_73
*647 TAP_TAPCELL_ROW_9_74
*648 TAP_TAPCELL_ROW_9_75
*649 TAP_TAPCELL_ROW_9_76
*650 TAP_TAPCELL_ROW_9_77
*651 TAP_TAPCELL_ROW_9_78
*652 TAP_TAPCELL_ROW_9_79
*653 _175_
*654 _176_
*655 _177_
*656 _178_
*657 _179_
*658 _180_
*659 _181_
*660 _182_
*661 _183_
*662 _184_
*663 _185_
*664 _186_
*665 _187_
*666 _188_
*667 _189_
*668 _190_
*669 _191_
*670 _192_
*671 _193_
*672 _194_
*673 _195_
*674 _196_
*675 _197_
*676 _198_
*677 _199_
*678 _200_
*679 _201_
*680 _202_
*681 _203_
*682 _204_
*683 _205_
*684 _206_
*685 _207_
*686 _208_
*687 _209_
*688 _210_
*689 _211_
*690 _212_
*691 _213_
*692 _214_
*693 _215_
*694 _216_
*695 _217_
*696 _218_
*697 _219_
*698 _220_
*699 _221_
*700 _222_
*701 _223_
*702 _224_
*703 _225_
*704 _226_
*705 _227_
*706 _228_
*707 _229_
*708 _230_
*709 _231_
*710 _232_
*711 _233_
*712 _234_
*713 _235_
*714 _236_
*715 _237_
*716 _238_
*717 _239_
*718 _240_
*719 _241_
*720 _242_
*721 _243_
*722 _244_
*723 _245_
*724 _246_
*725 _247_
*726 _248_
*727 _249_
*728 _250_
*729 _251_
*730 _252_
*731 _253_
*732 _254_
*733 _255_
*734 _256_
*735 _257_
*736 _258_
*737 _259_
*738 _260_
*739 _261_
*740 _262_
*741 _263_
*742 _264_
*743 _265_
*744 _266_
*745 _267_
*746 _268_
*747 _269_
*748 _270_
*749 _271_
*750 _272_
*751 _273_
*752 _274_
*753 _275_
*754 _276_
*755 _277_
*756 _278_
*757 _279_
*758 _280_
*759 _281_
*760 _282_
*761 _283_
*762 _284_
*763 _285_
*764 _286_
*765 _287_
*766 _288_
*767 _289_
*768 _290_
*769 _291_
*770 _292_
*771 _293_
*772 _294_
*773 _295_
*774 _296_
*775 _297_
*776 _298_
*777 _299_
*778 _300_
*779 _301_
*780 _302_
*781 _303_
*782 _304_
*783 _305_
*784 _306_
*785 _307_
*786 _308_
*787 _309_
*788 _310_
*789 _311_
*790 _312_
*791 _313_
*792 _314_
*793 _315_
*794 _316_
*795 _317_
*796 _318_
*797 _319_
*798 _320_
*799 _321_
*800 _322_
*801 _323_
*802 _324_
*803 _325_
*804 _326_
*805 _327_
*806 _328_
*807 _329_
*808 _330_
*809 _331_
*810 _332_
*811 _333_
*812 _334_
*813 _335_
*814 _336_
*815 _337_
*816 _338_
*817 _339_
*818 _340_
*819 _341_
*820 _342_
*821 _343_
*822 _344_
*823 _345_
*824 _346_
*825 _347_
*826 _348_
*827 _349_
*828 _350_
*829 _351_
*830 _352_
*831 _353_
*832 _354_
*833 _355_
*834 _356_
*835 _357_
*836 _358_
*837 _359_
*838 _360_
*839 _361_
*840 _362_
*841 _363_
*842 _364_
*843 _365_
*844 _366_
*845 _367_
*846 _368_
*847 _369_
*848 _370_
*849 _371_
*850 _372_
*851 _373_
*852 _374_
*853 _375_
*854 _376_
*855 _377_
*856 _378_
*857 _379_
*858 _380_
*859 _381_
*860 _382_
*861 _383_
*862 _384_
*863 _385_
*864 _386_
*865 _387_
*866 _388_
*867 _389_
*868 _390_
*869 _391_
*870 _392_
*871 _393_
*872 _394_
*873 _395_
*874 _396_
*875 _397_
*876 _398_
*877 _399_
*878 _400_
*879 _401_
*880 _402_
*881 _403_
*882 _404_
*883 _405_
*884 _406_
*885 _407_
*886 _408_
*887 _409_
*888 _410_
*889 _411_
*890 _412_
*891 _413_
*892 _414_
*893 _415_
*894 _416_
*895 _417_
*896 _418_
*897 _419_
*898 _420_
*899 _421_
*900 _422_
*901 _423_
*902 _424_
*903 _425_
*904 _426_
*905 _427_
*906 _428_
*907 _429_
*908 _430_
*909 _431_
*910 _432_
*911 _433_
*912 _434_
*913 _435_
*914 _436_
*915 _437_
*916 _438_
*917 _439_
*918 _440_
*919 _441_
*920 _442_
*921 _443_
*922 _444_
*923 _445_
*924 _446_
*925 fanout100
*926 fanout101
*927 fanout102
*928 fanout103
*929 fanout104
*930 fanout105
*931 fanout106
*932 fanout107
*933 fanout108
*934 fanout109
*935 fanout110
*936 fanout111
*937 fanout112
*938 fanout113
*939 fanout114
*940 fanout115
*941 fanout116
*942 fanout117
*943 fanout95
*944 fanout96
*945 fanout97
*946 fanout98
*947 fanout99
*948 input1
*949 input10
*950 input11
*951 input12
*952 input13
*953 input14
*954 input15
*955 input16
*956 input17
*957 input18
*958 input19
*959 input2
*960 input20
*961 input21
*962 input22
*963 input23
*964 input24
*965 input25
*966 input3
*967 input4
*968 input5
*969 input6
*970 input7
*971 input8
*972 input9
*973 output26
*974 output27
*975 output28
*976 output29
*977 output30
*978 output31
*979 output32
*980 output33
*981 output34
*982 output35
*983 output36
*984 output37
*985 output38
*986 output39
*987 output40
*988 output41
*989 output42
*990 output43
*991 output44
*992 output45
*993 output46
*994 output47
*995 output48
*996 output49
*997 output50
*998 output51
*999 output52
*1000 output53
*1001 output54
*1002 output55
*1003 output56
*1004 output57
*1005 output58
*1006 output59
*1007 output60
*1008 output61
*1009 output62
*1010 output63
*1011 output64
*1012 output65
*1013 output66
*1014 output67
*1015 output68
*1016 output69
*1017 output70
*1018 output71
*1019 output72
*1020 output73
*1021 output74
*1022 output75
*1023 output76
*1024 output77
*1025 output78
*1026 output79
*1027 output80
*1028 output81
*1029 output82
*1030 output83
*1031 output84
*1032 output85
*1033 output86
*1034 output87
*1035 output88
*1036 output89
*1037 output90
*1038 output91
*1039 output92
*1040 output93
*1041 output94

*PORTS
clk I
clk_data O
comp_n I
comp_p I
data[0] O
data[1] O
data[2] O
data[3] O
data[4] O
data[5] O
debug_mux[0] I
debug_mux[1] I
debug_mux[2] I
debug_mux[3] I
debug_out O
en_comp O
en_offset_cal I
en_offset_cal_o O
en_vcm_sw_o O
en_vcm_sw_o_i I
offset_cal_cycle O
rst_z I
sample_o O
single_ended I
start I
vcm_dummy_o O
vcm_o[0] O
vcm_o[10] O
vcm_o[1] O
vcm_o[2] O
vcm_o[3] O
vcm_o[4] O
vcm_o[5] O
vcm_o[6] O
vcm_o[7] O
vcm_o[8] O
vcm_o[9] O
vcm_o_i[0] I
vcm_o_i[10] I
vcm_o_i[1] I
vcm_o_i[2] I
vcm_o_i[3] I
vcm_o_i[4] I
vcm_o_i[5] I
vcm_o_i[6] I
vcm_o_i[7] I
vcm_o_i[8] I
vcm_o_i[9] I
vin_n_sw_on I
vin_p_sw_on I
vref_z_n_o[0] O
vref_z_n_o[10] O
vref_z_n_o[1] O
vref_z_n_o[2] O
vref_z_n_o[3] O
vref_z_n_o[4] O
vref_z_n_o[5] O
vref_z_n_o[6] O
vref_z_n_o[7] O
vref_z_n_o[8] O
vref_z_n_o[9] O
vref_z_p_o[0] O
vref_z_p_o[10] O
vref_z_p_o[1] O
vref_z_p_o[2] O
vref_z_p_o[3] O
vref_z_p_o[4] O
vref_z_p_o[5] O
vref_z_p_o[6] O
vref_z_p_o[7] O
vref_z_p_o[8] O
vref_z_p_o[9] O
vss_n_o[0] O
vss_n_o[10] O
vss_n_o[1] O
vss_n_o[2] O
vss_n_o[3] O
vss_n_o[4] O
vss_n_o[5] O
vss_n_o[6] O
vss_n_o[7] O
vss_n_o[8] O
vss_n_o[9] O
vss_p_o[0] O
vss_p_o[10] O
vss_p_o[1] O
vss_p_o[2] O
vss_p_o[3] O
vss_p_o[4] O
vss_p_o[5] O
vss_p_o[6] O
vss_p_o[7] O
vss_p_o[8] O
vss_p_o[9] O

*D_NET *3 0.00263596
*CONN
*P clk I
*I *948:A I *D sky130_fd_sc_hd__buf_1
*CAP
1 clk 0.000833041
2 *948:A 0
3 *3:15 0.000833041
4 *3:15 *295:35 0.000148159
5 *3:15 *305:16 0.00037765
6 *3:15 *305:85 4.5051e-05
7 *3:15 *319:26 0
8 *3:15 *360:47 0.000399019
*RES
1 clk *3:15 33.3529 
2 *3:15 *948:A 23 
*END

*D_NET *4 0.00132917
*CONN
*P clk_data O
*I *973:X O *D sky130_fd_sc_hd__clkbuf_4
*CAP
1 clk_data 0.00056049
2 *973:X 3.65135e-05
3 *4:8 0.000597003
4 clk_data *65:10 3.66809e-05
5 clk_data *372:22 0
6 *4:8 *65:10 9.84851e-05
*RES
1 *973:X *4:8 39.0979 
2 *4:8 clk_data 11.8693 
*END

*D_NET *5 0.0022549
*CONN
*P comp_n I
*I *959:A I *D sky130_fd_sc_hd__buf_1
*CAP
1 comp_n 0.000659332
2 *959:A 0
3 *5:13 0.000659332
4 *5:13 vcm_o[0] 0
5 *5:13 *966:A 0
6 *5:13 *1033:A 9.58714e-05
7 *5:13 *86:8 0.00041912
8 *5:13 *185:24 0
9 *5:13 *314:10 2.64616e-05
10 *5:13 *355:22 7.10294e-05
11 *5:13 *388:14 0.000216539
12 *5:13 *406:26 0.000107212
*RES
1 comp_n *5:13 31.965 
2 *5:13 *959:A 23 
*END

*D_NET *6 0.00127382
*CONN
*P comp_p I
*I *966:A I *D sky130_fd_sc_hd__clkbuf_2
*CAP
1 comp_p 0.000550899
2 *966:A 0.000550899
3 *966:A en_comp 0
4 *966:A *314:10 0.000164282
5 *966:A *330:30 7.73823e-06
6 *966:A *406:26 0
7 *5:13 *966:A 0
*RES
1 comp_p *966:A 49.5586 
*END

*D_NET *7 0.00145183
*CONN
*P data[0] O
*I *974:X O *D sky130_fd_sc_hd__clkbuf_4
*CAP
1 data[0] 0.000519431
2 *974:X 0.000118181
3 *7:8 0.000637612
4 data[0] *321:28 7.8128e-05
5 data[0] *362:20 0
6 data[0] *372:22 0
7 *7:8 *974:A 9.84794e-05
*RES
1 *974:X *7:8 39.5743 
2 *7:8 data[0] 11.5171 
*END

*D_NET *8 0.00145534
*CONN
*P data[1] O
*I *975:X O *D sky130_fd_sc_hd__clkbuf_4
*CAP
1 data[1] 0.00057319
2 *975:X 9.58195e-05
3 *8:8 0.00066901
4 *8:8 *929:A 1.65153e-05
5 *8:8 *975:A 0.000100803
*RES
1 *975:X *8:8 39.5743 
2 *8:8 data[1] 11.5171 
*END

*D_NET *9 0.00138815
*CONN
*P data[2] O
*I *976:X O *D sky130_fd_sc_hd__clkbuf_4
*CAP
1 data[2] 0.000537692
2 *976:X 4.88151e-05
3 *9:8 0.000586507
4 data[2] *349:19 0.000185755
5 data[2] *351:33 0
6 *9:8 *150:8 2.93845e-05
*RES
1 *976:X *9:8 38.6214 
2 *9:8 data[2] 11.5171 
*END

*D_NET *10 0.0017813
*CONN
*P data[3] O
*I *977:X O *D sky130_fd_sc_hd__clkbuf_4
*CAP
1 data[3] 0.00059248
2 *977:X 0.000175556
3 *10:8 0.000768036
4 *10:8 *684:A1 5.37348e-06
5 *10:8 *298:16 0.000230604
6 *10:8 *298:20 9.24795e-06
*RES
1 *977:X *10:8 41.0036 
2 *10:8 data[3] 11.5171 
*END

*D_NET *11 0.00120949
*CONN
*P data[4] O
*I *978:X O *D sky130_fd_sc_hd__clkbuf_4
*CAP
1 data[4] 0.000604747
2 *978:X 0.000604747
3 data[4] *298:153 0
4 data[4] *372:8 0
*RES
1 *978:X data[4] 49.8693 
*END

*D_NET *12 0.00196302
*CONN
*P data[5] O
*I *979:X O *D sky130_fd_sc_hd__clkbuf_4
*CAP
1 data[5] 0.000723499
2 *979:X 0.000132224
3 *12:10 0.000855723
4 data[5] *687:A 8.64312e-05
5 data[5] *321:39 6.57371e-05
6 data[5] *328:10 4.23845e-05
7 *12:10 *152:16 1.65946e-06
8 *12:10 *303:20 5.53595e-05
*RES
1 *979:X *12:10 39.7193 
2 *12:10 data[5] 16.6957 
*END

*D_NET *13 0.00141204
*CONN
*P debug_mux[0] I
*I *967:A I *D sky130_fd_sc_hd__clkbuf_2
*CAP
1 debug_mux[0] 0.000653612
2 *967:A 0
3 *13:9 0.000653612
4 *13:9 *822:A1 0
5 *13:9 *209:16 4.6318e-06
6 *13:9 *226:37 0
7 *13:9 *369:18 0.00010018
*RES
1 debug_mux[0] *13:9 27.9671 
2 *13:9 *967:A 23 
*END

*D_NET *14 0.00151515
*CONN
*P debug_mux[1] I
*I *968:A I *D sky130_fd_sc_hd__clkbuf_2
*CAP
1 debug_mux[1] 0.00064495
2 *968:A 0
3 *14:9 0.00064495
4 *14:9 *347:10 5.67058e-05
5 *14:9 *358:10 2.65879e-05
6 *14:9 *369:18 0.00014196
*RES
1 debug_mux[1] *14:9 28.4436 
2 *14:9 *968:A 23 
*END

*D_NET *15 0.00160974
*CONN
*P debug_mux[2] I
*I *969:A I *D sky130_fd_sc_hd__buf_1
*CAP
1 debug_mux[2] 0.000632172
2 *969:A 0
3 *15:13 0.000632172
4 *15:13 *16:17 8.13415e-05
5 *15:13 *226:33 3.83778e-05
6 *15:13 *319:16 0.000225679
*RES
1 debug_mux[2] *15:13 29.0857 
2 *15:13 *969:A 23 
*END

*D_NET *16 0.00248916
*CONN
*P debug_mux[3] I
*I *970:A I *D sky130_fd_sc_hd__buf_1
*CAP
1 debug_mux[3] 0.00109363
2 *970:A 0
3 *16:17 0.00109363
4 *16:17 vref_z_n_o[10] 1.95685e-05
5 *16:17 *319:16 0.000171615
6 *16:17 *350:41 0
7 *16:17 *358:10 2.93747e-05
8 *15:13 *16:17 8.13415e-05
*RES
1 debug_mux[3] *16:17 37.2264 
2 *16:17 *970:A 23 
*END

*D_NET *17 0.00216823
*CONN
*P debug_out O
*I *980:X O *D sky130_fd_sc_hd__clkbuf_4
*CAP
1 debug_out 0.000278439
2 *980:X 0.0007192
3 *17:10 0.00099764
4 *17:10 *126:44 3.23458e-05
5 *17:10 *155:85 4.23093e-05
6 *17:10 *155:102 6.3704e-06
7 *17:10 *233:82 9.1946e-06
8 *17:10 *278:8 8.27285e-05
9 *17:10 *350:33 0
10 *17:10 *362:10 0
*RES
1 *980:X *17:10 49.8589 
2 *17:10 debug_out 6.41107 
*END

*D_NET *18 0.00137117
*CONN
*P en_comp O
*I *981:X O *D sky130_fd_sc_hd__buf_2
*CAP
1 en_comp 0.000474293
2 *981:X 0.000163446
3 *18:8 0.000637739
4 en_comp sample_o 0
5 en_comp vss_p_o[0] 0
6 en_comp *88:10 5.58873e-06
7 en_comp *314:10 0
8 en_comp *330:30 0
9 *18:8 *86:8 9.01041e-05
10 *966:A en_comp 0
*RES
1 *981:X *18:8 40.5271 
2 *18:8 en_comp 10.1086 
*END

*D_NET *19 0.00140173
*CONN
*P en_offset_cal I
*I *971:A I *D sky130_fd_sc_hd__buf_1
*CAP
1 en_offset_cal 0.000632516
2 *971:A 0
3 *19:11 0.000632516
4 *19:11 *818:B 0
5 *19:11 *26:13 3.91386e-05
6 *19:11 *209:16 0
7 *19:11 *226:65 5.67058e-05
8 *19:11 *306:24 4.08537e-05
*RES
1 en_offset_cal *19:11 27.9879 
2 *19:11 *971:A 23 
*END

*D_NET *20 0.00141968
*CONN
*P en_offset_cal_o O
*I *982:X O *D sky130_fd_sc_hd__clkbuf_4
*CAP
1 en_offset_cal_o 0.000494251
2 *982:X 0.000215587
3 *20:8 0.000709838
4 en_offset_cal_o offset_cal_cycle 0
*RES
1 *982:X *20:8 41.9564 
2 *20:8 en_offset_cal_o 10.4607 
*END

*D_NET *21 0.00215678
*CONN
*P en_vcm_sw_o O
*I *983:X O *D sky130_fd_sc_hd__buf_2
*CAP
1 en_vcm_sw_o 0.000518682
2 *983:X 0.000263614
3 *21:8 0.000782297
4 en_vcm_sw_o vcm_dummy_o 0
5 en_vcm_sw_o *830:A1 3.55887e-05
6 en_vcm_sw_o *22:11 0
7 en_vcm_sw_o *375:22 0.000283394
8 *21:8 *830:A2 0.000273201
*RES
1 *983:X *21:8 42.4329 
2 *21:8 en_vcm_sw_o 11.5171 
*END

*D_NET *22 0.0038061
*CONN
*P en_vcm_sw_o_i I
*I *972:A I *D sky130_fd_sc_hd__clkbuf_1
*CAP
1 en_vcm_sw_o_i 0.00095918
2 *972:A 0.000343437
3 *22:11 0.00130262
4 *972:A offset_cal_cycle 7.11869e-05
5 *972:A vss_n_o[6] 0.000123345
6 *972:A *289:145 4.30271e-05
7 *972:A *354:26 3.21506e-05
8 *972:A *381:18 0.000150477
9 *22:11 offset_cal_cycle 0
10 *22:11 *41:15 0
11 *22:11 *282:6 3.16784e-05
12 *22:11 *308:8 5.39045e-05
13 *22:11 *332:8 0.000293645
14 *22:11 *376:20 0.000401449
15 en_vcm_sw_o *22:11 0
*RES
1 en_vcm_sw_o_i *22:11 48.1664 
2 *22:11 *972:A 44.6493 
*END

*D_NET *23 0.00398607
*CONN
*P offset_cal_cycle O
*I *984:X O *D sky130_fd_sc_hd__buf_2
*CAP
1 offset_cal_cycle 0.0012471
2 *984:X 0.000416064
3 *23:10 0.00166317
4 offset_cal_cycle vref_z_n_o[0] 7.46212e-05
5 offset_cal_cycle vss_n_o[3] 9.86551e-06
6 offset_cal_cycle vss_n_o[6] 5.64598e-05
7 offset_cal_cycle vss_n_o[9] 5.58873e-06
8 offset_cal_cycle *41:15 0
9 offset_cal_cycle *84:10 6.9692e-05
10 offset_cal_cycle *147:8 0.000134445
11 offset_cal_cycle *349:29 0
12 offset_cal_cycle *354:20 0
13 offset_cal_cycle *354:26 0
14 offset_cal_cycle *377:18 0
15 offset_cal_cycle *391:8 0.000133231
16 *23:10 *1022:A 0
17 *23:10 *351:53 0.000104651
18 en_offset_cal_o offset_cal_cycle 0
19 *972:A offset_cal_cycle 7.11869e-05
20 *22:11 offset_cal_cycle 0
*RES
1 *984:X *23:10 44.3593 
2 *23:10 offset_cal_cycle 24.5464 
*END

*D_NET *24 0.00238093
*CONN
*P rst_z I
*I *949:A I *D sky130_fd_sc_hd__buf_1
*CAP
1 rst_z 0.00110043
2 *949:A 0
3 *24:11 0.00110043
4 *24:11 *754:B1 7.22276e-05
5 *24:11 *116:10 2.88587e-05
6 *24:11 *286:40 0
7 *24:11 *300:10 0
8 *24:11 *300:124 7.89883e-05
9 *24:11 *305:28 0
10 *24:11 *360:47 0
*RES
1 rst_z *24:11 33.6221 
2 *24:11 *949:A 23 
*END

*D_NET *25 0.00146735
*CONN
*P sample_o O
*I *985:X O *D sky130_fd_sc_hd__clkbuf_4
*CAP
1 sample_o 0.000488042
2 *985:X 0.000220795
3 *25:8 0.000708837
4 sample_o vss_p_o[0] 0
5 *25:8 *86:8 4.96717e-05
6 *25:8 *93:12 0
7 en_comp sample_o 0
*RES
1 *985:X *25:8 41.9564 
2 *25:8 sample_o 10.4607 
*END

*D_NET *26 0.00285317
*CONN
*P single_ended I
*I *950:A I *D sky130_fd_sc_hd__clkbuf_1
*CAP
1 single_ended 0.000818156
2 *950:A 0
3 *26:13 0.000818156
4 *26:13 *920:RESET_B 5.47556e-05
5 *26:13 *933:A 9.84794e-05
6 *26:13 *226:65 8.54716e-05
7 *26:13 *293:6 1.57571e-05
8 *26:13 *293:14 1.5769e-05
9 *26:13 *295:6 0.00010018
10 *26:13 *295:14 0.000272383
11 *26:13 *297:6 0.000534925
12 *19:11 *26:13 3.91386e-05
*RES
1 single_ended *26:13 35.7557 
2 *26:13 *950:A 23 
*END

*D_NET *27 0.00258026
*CONN
*P start I
*I *951:A I *D sky130_fd_sc_hd__clkbuf_1
*CAP
1 start 0.000872627
2 *951:A 0
3 *27:9 0.000872627
4 *27:9 *845:B 1.05441e-05
5 *27:9 *166:27 3.22879e-05
6 *27:9 *302:14 8.62783e-05
7 *27:9 *302:18 0.000112535
8 *27:9 *302:20 0.000252298
9 *27:9 *302:26 0.000138431
10 *27:9 *305:85 0.000129953
11 *27:9 *306:8 1.76652e-05
12 *27:9 *319:26 0
13 *27:9 *325:130 5.50106e-05
*RES
1 start *27:9 33.4771 
2 *27:9 *951:A 23 
*END

*D_NET *28 0.00303077
*CONN
*P vcm_dummy_o O
*I *986:X O *D sky130_fd_sc_hd__buf_2
*CAP
1 vcm_dummy_o 0.00105307
2 *986:X 0.000132738
3 *28:8 0.0011858
4 vcm_dummy_o *830:A1 0
5 vcm_dummy_o *830:C1 7.70252e-05
6 vcm_dummy_o *41:9 0
7 vcm_dummy_o *111:14 8.55943e-05
8 vcm_dummy_o *114:10 1.69733e-05
9 vcm_dummy_o *274:33 0.000203659
10 vcm_dummy_o *304:89 0.000119783
11 vcm_dummy_o *304:100 5.38942e-05
12 *28:8 *916:CLK 9.41704e-05
13 *28:8 *916:D 8.06804e-06
14 en_vcm_sw_o vcm_dummy_o 0
*RES
1 *986:X *28:8 39.5743 
2 *28:8 vcm_dummy_o 19.3264 
*END

*D_NET *29 0.00119899
*CONN
*P vcm_o[0] O
*I *987:X O *D sky130_fd_sc_hd__buf_2
*CAP
1 vcm_o[0] 0.000557933
2 *987:X 0.000557933
3 vcm_o[0] *952:A 0
4 vcm_o[0] *185:24 0
5 vcm_o[0] *406:39 8.31289e-05
6 *5:13 vcm_o[0] 0
*RES
1 *987:X vcm_o[0] 49.2064 
*END

*D_NET *30 0.00230644
*CONN
*P vcm_o[10] O
*I *988:X O *D sky130_fd_sc_hd__buf_2
*CAP
1 vcm_o[10] 0.000212324
2 *988:X 0.000735055
3 *30:10 0.000947378
4 vcm_o[10] *41:9 0
5 vcm_o[10] *50:15 0
6 *30:10 *909:CLK 4.95081e-05
7 *30:10 *909:RESET_B 0.000260954
8 *30:10 *50:15 0
9 *30:10 *110:10 3.17209e-05
10 *30:10 *289:30 0
11 *30:10 *304:89 1.32314e-05
12 *30:10 *348:6 6.51477e-06
13 *30:10 *373:22 4.97592e-05
*RES
1 *988:X *30:10 49.8175 
2 *30:10 vcm_o[10] 4.91964 
*END

*D_NET *31 0.00161359
*CONN
*P vcm_o[1] O
*I *989:X O *D sky130_fd_sc_hd__buf_2
*CAP
1 vcm_o[1] 0.000449034
2 *989:X 0.000168341
3 *31:10 0.000617375
4 vcm_o[1] *952:A 0
5 vcm_o[1] *42:13 0.000196925
6 vcm_o[1] *406:18 4.08641e-05
7 *31:10 *672:A 0.000141052
*RES
1 *989:X *31:10 40.1957 
2 *31:10 vcm_o[1] 10.1086 
*END

*D_NET *32 0.00138632
*CONN
*P vcm_o[2] O
*I *990:X O *D sky130_fd_sc_hd__buf_2
*CAP
1 vcm_o[2] 0.000622245
2 *990:X 0.000622245
3 vcm_o[2] *955:A 0
4 vcm_o[2] *990:A 5.3304e-05
5 vcm_o[2] *42:13 0
6 vcm_o[2] *203:44 3.5664e-05
7 vcm_o[2] *373:22 3.04021e-05
8 vcm_o[2] *375:14 0
9 vcm_o[2] *376:10 2.24608e-05
*RES
1 *990:X vcm_o[2] 49.6829 
*END

*D_NET *33 0.00217546
*CONN
*P vcm_o[3] O
*I *991:X O *D sky130_fd_sc_hd__buf_2
*CAP
1 vcm_o[3] 0.00059846
2 *991:X 0.000318199
3 *33:10 0.000916659
4 vcm_o[3] *955:A 0
5 vcm_o[3] *44:9 0
6 vcm_o[3] *408:12 3.71852e-05
7 *33:10 *919:CLK 6.17437e-06
8 *33:10 *991:A 0.000139357
9 *33:10 *279:61 5.70419e-05
10 *33:10 *408:12 0.000102386
*RES
1 *991:X *33:10 44.8357 
2 *33:10 vcm_o[3] 11.165 
*END

*D_NET *34 0.00108701
*CONN
*P vcm_o[4] O
*I *992:X O *D sky130_fd_sc_hd__buf_2
*CAP
1 vcm_o[4] 0.000543505
2 *992:X 0.000543505
3 vcm_o[4] *44:9 0
4 vcm_o[4] *45:9 0
5 vcm_o[4] *203:10 0
6 vcm_o[4] *290:116 0
*RES
1 *992:X vcm_o[4] 48.1086 
*END

*D_NET *35 0.00160842
*CONN
*P vcm_o[5] O
*I *993:X O *D sky130_fd_sc_hd__buf_2
*CAP
1 vcm_o[5] 0.00060989
2 *993:X 0.00060989
3 vcm_o[5] *45:9 0
4 vcm_o[5] *46:21 0
5 vcm_o[5] *185:18 0.000249287
6 vcm_o[5] *203:59 1.24376e-05
7 vcm_o[5] *203:70 0.000126914
8 vcm_o[5] *308:26 0
9 vcm_o[5] *354:20 0
*RES
1 *993:X vcm_o[5] 49.6829 
*END

*D_NET *36 0.00184789
*CONN
*P vcm_o[6] O
*I *994:X O *D sky130_fd_sc_hd__buf_2
*CAP
1 vcm_o[6] 0.000541058
2 *994:X 0.000273457
3 *36:10 0.000814516
4 vcm_o[6] *925:A 0
5 vcm_o[6] *46:21 0
6 vcm_o[6] *47:9 0
7 vcm_o[6] *289:40 0
8 vcm_o[6] *289:48 0
9 *36:10 *858:B1 5.67058e-05
10 *36:10 *925:A 2.93845e-05
11 *36:10 *46:21 1.32314e-05
12 *36:10 *203:95 3.28227e-05
13 *36:10 *296:117 1.41123e-05
14 *36:10 *344:8 6.33508e-05
15 *36:10 *401:69 9.24795e-06
*RES
1 *994:X *36:10 42.5779 
2 *36:10 vcm_o[6] 10.1086 
*END

*D_NET *37 0.0016957
*CONN
*P vcm_o[7] O
*I *995:X O *D sky130_fd_sc_hd__buf_2
*CAP
1 vcm_o[7] 0.000541093
2 *995:X 0.000189119
3 *37:10 0.000730212
4 vcm_o[7] *47:9 0
5 vcm_o[7] *48:9 0
6 vcm_o[7] *401:40 0
7 *37:10 *858:B2 4.07843e-06
8 *37:10 *296:20 0.000231194
*RES
1 *995:X *37:10 41.1486 
2 *37:10 vcm_o[7] 10.1086 
*END

*D_NET *38 0.0023382
*CONN
*P vcm_o[8] O
*I *996:X O *D sky130_fd_sc_hd__buf_2
*CAP
1 vcm_o[8] 0.000216832
2 *996:X 0.000718772
3 *38:14 0.000935604
4 vcm_o[8] *48:9 0
5 vcm_o[8] *49:19 0
6 *38:14 *49:19 0
7 *38:14 *280:22 0.000156957
8 *38:14 *281:26 0.000221084
9 *38:14 *305:144 0
10 *38:14 *317:20 0
11 *38:14 *346:12 8.89538e-05
*RES
1 *996:X *38:14 49.4861 
2 *38:14 vcm_o[8] 4.91964 
*END

*D_NET *39 0.00236724
*CONN
*P vcm_o[9] O
*I *997:X O *D sky130_fd_sc_hd__buf_2
*CAP
1 vcm_o[9] 0.00058418
2 *997:X 8.07923e-05
3 *39:8 0.000664972
4 vcm_o[9] *49:19 0
5 vcm_o[9] *50:15 0
6 vcm_o[9] *289:36 0
7 vcm_o[9] *296:142 6.10809e-05
8 vcm_o[9] *296:159 6.01055e-05
9 vcm_o[9] *330:16 1.09111e-05